25

C -6.020100117 -1.869099975 0.518100023
C -6.333399773 -0.551100016 1.168200016
C -5.595799923 -0.583500028 -0.147500008
C -4.130099773 -0.208900005 -0.218100011
C -3.990200043 1.292099953 -0.391400039
C -4.135200024 2.211800098 0.796199977
C -2.789099693 2.024800062 0.156899989
C 7.550000191 2.275899887 0.824400008
C 6.533800125 1.262199998 0.380299985
C 6.910600185 0.229799986 -0.514100015
C 5.994800091 -0.746900022 -0.922599971
C 4.716899872 -0.669499993 -0.406800032
C 4.344500065 0.325899988 0.476599991
C 5.227099895 1.304299951 0.893100023
C 2.939500093 0.109999992 0.816900015
O 2.286000013 0.845799983 1.531299829
N 2.548399925 -1.023100019 0.155999988
C 3.549900055 -1.521499991 -0.631600022
O 3.532900095 -2.463399887 -1.400400162
I -0.728181958 -1.161801338 -0.619243324
I 0.652057171 -1.492009163 -0.849890292
F -1.394756079 -0.987675786 -0.901662648
I 1.268190384 -1.180478811 0.030830115
C -3.228909492 -0.318100482 -2.562257290
C 0.052396059 -0.852782547 -1.546192646
