26

C 2.221640110 2.501765013 0.461300015
C 1.762539983 1.666564941 -0.696399987
C 0.421939999 1.306464911 -0.824499965
C 0.005439997 0.495365024 -1.882200003
C 0.920840025 0.025465012 -2.843299866
C 2.277639866 0.391465008 -2.724500179
C 3.346139908 -0.081434995 -3.675099850
C 2.679739952 1.183465004 -1.634199977
C 0.299939990 -1.295335054 3.221000195
S -0.302560002 0.264065027 2.854599953
C -1.039459944 -0.337435007 1.406299949
N -1.725460052 0.436765015 0.520900011
C -2.666959763 -0.182135001 -0.402599990
C -3.769259930 0.862065017 -0.560699999
C -3.034460068 2.174064875 -0.355899990
C -2.053659916 1.834665060 0.763499975
N -0.857560039 -1.629334927 1.225999951
C -0.052759990 -2.175235033 2.222499847
C 0.359539986 -3.610635042 2.090400219
C 1.206740022 -3.830635071 0.832900047
F -2.580458164 0.805109978 -3.148378611
Br -1.615736604 -0.943318486 -4.732792854
N -1.619357228 -0.237330884 -1.615605235
N -1.773993611 2.316154003 -3.880952597
Br -1.992264152 -1.662527084 -1.879930258
C -1.525179386 -0.065553106 -2.513369322
