26

C 2.221640110 2.501765013 0.461300015
C 1.762539983 1.666564941 -0.696399987
C 0.421939999 1.306464911 -0.824499965
C 0.005439997 0.495365024 -1.882200003
C 0.920840025 0.025465012 -2.843299866
C 2.277639866 0.391465008 -2.724500179
C 3.346139908 -0.081434995 -3.675099850
C 2.679739952 1.183465004 -1.634199977
C 0.299939990 -1.295335054 3.221000195
S -0.302560002 0.264065027 2.854599953
C -1.039459944 -0.337435007 1.406299949
N -1.725460052 0.436765015 0.520900011
C -2.666959763 -0.182135001 -0.402599990
C -3.769259930 0.862065017 -0.560699999
C -3.034460068 2.174064875 -0.355899990
C -2.053659916 1.834665060 0.763499975
N -0.857560039 -1.629334927 1.225999951
C -0.052759990 -2.175235033 2.222499847
C 0.359539986 -3.610635042 2.090400219
C 1.206740022 -3.830635071 0.832900047
N -1.772233725 -0.338310778 -0.691296697
N -0.756130040 1.542830944 -2.611599684
Br -1.429802418 1.167418480 -1.084087253
O -0.095963888 1.232973337 -1.190235376
F -1.600981474 -1.728535771 -0.674341202
Br -2.021706104 -0.471811354 -1.062222004
