26

C 2.308655500 2.088361263 0.623705566
C 1.849555492 1.253161073 -0.533994436
C 0.508955598 0.893061042 -0.662094474
C 0.092455566 0.081961095 -1.719794512
C 1.007855654 -0.387938917 -2.680894375
C 2.364655495 -0.021938920 -2.562094450
C 3.433155537 -0.494838923 -3.512694359
C 2.766755581 0.770061016 -1.471794367
C 0.386955559 -1.708738923 3.383405685
S -0.215544432 -0.149338901 3.017005682
C -0.952444375 -0.750838935 1.568705559
N -1.638444424 0.023361087 0.683305562
C -2.579944372 -0.595538914 -0.240194440
C -3.682244539 0.448661089 -0.398294449
C -2.947444439 1.760661006 -0.193494439
C -1.966644526 1.421261191 0.925905526
N -0.770544469 -2.042738914 1.388405561
C 0.034255579 -2.588638783 2.384905577
F 1.628832459 -2.880702734 -0.972469926
F -0.754695952 -1.661211014 -2.963626385
O 1.391480684 0.005026080 -2.631469250
S 1.147108555 -4.831231594 -0.184840590
C 1.372614503 -1.468513966 -0.489719152
Cl 1.079103351 -4.038405418 0.548973918
C 0.785814583 -2.678586006 1.633350849
S 0.739377916 -3.555362701 -1.623856068
