26

C 2.308655500 2.088361263 0.623705566
C 1.849555492 1.253161073 -0.533994436
C 0.508955598 0.893061042 -0.662094474
C 0.092455566 0.081961095 -1.719794512
C 1.007855654 -0.387938917 -2.680894375
C 2.364655495 -0.021938920 -2.562094450
C 3.433155537 -0.494838923 -3.512694359
C 2.766755581 0.770061016 -1.471794367
C 0.386955559 -1.708738923 3.383405685
S -0.215544432 -0.149338901 3.017005682
C -0.952444375 -0.750838935 1.568705559
N -1.638444424 0.023361087 0.683305562
C -2.579944372 -0.595538914 -0.240194440
C -3.682244539 0.448661089 -0.398294449
C -2.947444439 1.760661006 -0.193494439
C -1.966644526 1.421261191 0.925905526
N -0.770544469 -2.042738914 1.388405561
C 0.034255579 -2.588638783 2.384905577
F -0.600453615 0.272718400 0.120002642
N -1.198906541 -0.912196636 -1.312620997
Br 0.216158003 -0.157831520 -1.524715185
S -0.086213723 -1.704780936 -0.367153078
Br 0.748307407 -1.194698453 -1.312972307
Cl 0.449558139 -0.300764710 0.203588799
Cl 1.205668330 0.059364647 1.623523355
Br -0.071870200 -3.241139174 0.659044862
