27

O 0.164499998 -0.615700006 -0.929499984
C 1.304600000 -0.226199999 -0.693700016
N 1.778699994 0.249799997 0.524500012
C 2.294899940 -0.208399996 -1.810199976
C 1.821599960 -0.085800000 -3.123199940
C 2.723099947 -0.073700003 -4.183199883
F 2.266000032 0.053300001 -5.435299873
C 4.087999821 -0.189999998 -3.964900017
C 4.547100067 -0.329600006 -2.662899971
F 5.861400127 -0.455599993 -2.438499928
C 3.669500113 -0.344700009 -1.581799984
O -1.539600015 2.320100069 -0.124799997
C -2.049799919 1.204200029 -0.073799998
C -3.237400055 0.862200022 0.827099979
N -3.231400013 -0.547200024 1.313899994
S -2.662600040 -0.801199973 2.898999929
O -2.535300016 -2.224100113 3.127099991
O -3.478699923 0.024800001 3.766499996
C -2.915199995 -1.578600049 0.278200001
C -2.469000101 -0.972899973 -1.059999943
N -1.598999977 0.169499993 -0.869899988
O 0.495394021 0.734140694 0.675063133
F 1.115408182 -0.237300158 1.074744701
F 0.891597033 0.621512830 0.592482746
F -0.751510620 1.416722417 1.827051401
Cl 2.039486408 0.185181081 0.196839347
F 1.225074887 2.173391581 -0.397815317
