27

O 0.164499998 -0.615700006 -0.929499984
C 1.304600000 -0.226199999 -0.693700016
N 1.778699994 0.249799997 0.524500012
C 2.294899940 -0.208399996 -1.810199976
C 1.821599960 -0.085800000 -3.123199940
C 2.723099947 -0.073700003 -4.183199883
F 2.266000032 0.053299993 -5.435299873
C 4.087999821 -0.189999998 -3.964900017
C 4.547100067 -0.329600006 -2.662899971
F 5.861400127 -0.455599993 -2.438499928
C 3.669500113 -0.344700009 -1.581799984
O -1.539600015 2.320099831 -0.124799967
C -2.049799919 1.204200029 -0.073799968
C -3.237400055 0.862200022 0.827099919
N -3.231400013 -0.547200024 1.313900113
S -2.662600040 -0.801199973 2.898999691
O -2.535300016 -2.224100113 3.127099991
O -3.478699923 0.024800003 3.766499996
C -2.915199995 -1.578600049 0.278200030
C -2.469000101 -0.972899973 -1.059999943
N -1.598999977 0.169499993 -0.869899988
C 1.140887976 1.631861329 2.573571682
O 0.797241747 0.252570152 4.026675701
S -0.776507437 0.107668370 3.990485668
N -0.325668931 -0.441877604 1.525450826
Br -1.260065794 -0.348421365 2.502984047
C 1.387020230 0.385899127 1.585267186
