26

C 2.073199987 2.890500069 1.161000013
C 1.614099979 2.055299759 0.003300011
C 0.273499966 1.695199847 -0.124799967
C -0.143000051 0.884099901 -1.182500005
C 0.772399962 0.414199889 -2.143599987
C 2.129199982 0.780199885 -2.024799824
C 3.197700024 0.307299882 -2.975399971
C 2.531300068 1.572199821 -0.934499979
C 0.151499957 -0.906600118 3.920700073
S -0.451000035 0.652799904 3.554300308
C -1.187900066 0.051299870 2.105999947
N -1.873900056 0.825499892 1.220600009
C -2.815399885 0.206599891 0.297100008
C -3.917700052 1.250799894 0.138999999
C -3.182899952 2.562799931 0.343800008
C -2.202100039 2.223400116 1.463199973
N -1.006000042 -1.240600109 1.925699949
C -0.201200038 -1.786499977 2.922200203
C 0.211099952 -3.221899986 2.790100098
S -1.565665483 -0.059185982 -3.396986485
C -1.871979475 -0.445544243 -2.950436115
F -1.681258440 -0.523930550 -5.297870636
Cl -2.608090162 -0.330337584 -0.853368998
I -2.798139095 0.125542194 -1.966766477
C 0.673573971 -0.505500317 -3.309974194
I -1.856725931 -1.713155508 -0.851425052
