26

C 2.073199987 2.890500069 1.161000013
C 1.614099979 2.055299759 0.003300011
C 0.273500085 1.695199847 -0.124800026
C -0.142999947 0.884099901 -1.182500124
C 0.772400141 0.414199889 -2.143599987
C 2.129199982 0.780199885 -2.024800062
C 3.197700024 0.307299882 -2.975399971
C 2.531300068 1.572199821 -0.934499919
C 0.151500046 -0.906600118 3.920700073
S -0.450999945 0.652799904 3.554300070
C -1.187899828 0.051299870 2.105999947
N -1.873899937 0.825499892 1.220600009
C -2.815399885 0.206599891 0.297100008
C -3.917700052 1.250799894 0.138999999
C -3.182899952 2.562799931 0.343800008
C -2.202100039 2.223400116 1.463199973
N -1.006000042 -1.240600109 1.925699949
C -0.201199934 -1.786499977 2.922199965
N -2.870423555 -2.187148571 -0.778166950
O -4.517022610 -0.803521872 -1.831428289
C -1.681844711 -1.976787090 0.883306623
C -1.503314495 -3.409569740 0.618199706
C -3.798381805 -1.812465429 -1.662494183
N -2.760508060 -1.206376553 0.066317856
C -4.113214493 -2.916313171 -2.753790140
C -2.313926458 -3.524946690 -0.653388798
