26

C 2.073199987 2.890500069 1.161000013
C 1.614099979 2.055299759 0.003300011
C 0.273500085 1.695199847 -0.124800026
C -0.142999947 0.884099901 -1.182500124
C 0.772400141 0.414199889 -2.143599987
C 2.129199982 0.780199885 -2.024800062
C 3.197700024 0.307299882 -2.975399971
C 2.531300068 1.572199821 -0.934499919
C 0.151500046 -0.906600118 3.920700073
S -0.450999945 0.652799904 3.554300070
C -1.187899828 0.051299870 2.105999947
N -1.873899937 0.825499892 1.220600009
C -2.815399885 0.206599891 0.297100008
C -3.917700052 1.250799894 0.138999999
C -3.182899952 2.562799931 0.343800008
C -2.202100039 2.223400116 1.463199973
N -1.006000042 -1.240600109 1.925699949
C -0.201199934 -1.786499977 2.922199965
C -0.379584849 -0.242802143 0.116347820
S -1.204478502 -2.042349100 -0.675748289
F -0.292226255 -0.573172092 0.675925016
F -3.214155436 -1.264627457 0.730885744
I -1.540328145 0.751914859 -0.759561718
N -2.409823656 -0.419604897 0.100022107
Cl -2.291357517 -1.520321608 -1.470914602
N -0.934589982 -1.134112239 1.548790455
