27

O 2.660900116 -1.845999956 2.258899927
C 2.702800035 -0.906799912 1.478199959
N 3.769099951 -0.635799944 0.659499884
C 4.968800068 -1.431699991 0.784499884
C 5.974699974 -1.061399937 -0.262400061
C 7.090499878 -0.273299932 0.032599926
C 7.988900185 0.056300044 -0.978300035
C 7.737299919 -0.409299940 -2.258100033
N 6.667699814 -1.165599823 -2.583499908
C 5.813199997 -1.473599911 -1.581500053
N 1.702700019 0.014500082 1.302799940
C -7.985699654 -1.448699951 -2.400399923
C -6.665599823 -1.829900026 -2.603699923
C -5.639599800 -1.032599926 -2.103300095
C -5.965600014 0.128100038 -1.402300119
C -4.880300045 1.047100067 -0.882200062
O -3.831899643 0.285600066 -0.275600046
N -7.253200054 0.519200087 -1.210400105
C -8.226799965 -0.277699947 -1.703700066
Cl -0.629340827 0.849667788 1.641851902
O -1.165037155 0.624392748 2.476389170
C -1.995031595 0.208184242 2.086220503
I 0.348102719 2.653019190 1.643142462
O -0.643071115 2.072984457 1.190952539
F -2.490138292 1.482528448 -0.399797410
Cl 0.847934484 -0.565288484 1.526354551
S -2.783969402 0.674323320 0.373530388
