27

O 2.660900116 -1.845999956 2.258899927
C 2.702800035 -0.906799912 1.478199959
N 3.769099951 -0.635799944 0.659499884
C 4.968800068 -1.431699991 0.784499884
C 5.974699974 -1.061399937 -0.262400061
C 7.090499878 -0.273299932 0.032599926
C 7.988900185 0.056300044 -0.978300035
C 7.737299919 -0.409299940 -2.258100033
N 6.667699814 -1.165599823 -2.583499908
C 5.813199997 -1.473599911 -1.581500053
N 1.702700019 0.014500082 1.302799940
C -7.985699654 -1.448699951 -2.400399923
C -6.665599823 -1.829900026 -2.603699923
C -5.639599800 -1.032599926 -2.103300095
C -5.965600014 0.128100038 -1.402300119
C -4.880300045 1.047100067 -0.882200062
O -3.831899643 0.285600066 -0.275600046
N -7.253200054 0.519200087 -1.210400105
C -8.226799965 -0.277699947 -1.703700066
N -0.108679622 1.119218111 1.074660540
Cl -1.704505444 0.928085327 2.198498249
C -1.256006002 0.545153975 1.800868750
N 0.030890763 2.195972919 1.595110178
S -0.733162522 1.522852182 1.299639225
S -1.134998560 0.873558402 0.414642334
O 1.231083989 -0.555636942 1.171761632
S -2.095989943 0.659136891 0.123224556
