27

O 2.660900116 -1.845999956 2.258899927
C 2.702800035 -0.906799912 1.478199959
N 3.769099951 -0.635799944 0.659499884
C 4.968800068 -1.431699991 0.784499884
C 5.974699974 -1.061399937 -0.262400061
C 7.090499878 -0.273299932 0.032599926
C 7.988900185 0.056300044 -0.978300035
C 7.737299919 -0.409299940 -2.258100033
N 6.667699814 -1.165599823 -2.583499908
C 5.813199997 -1.473599911 -1.581500053
N 1.702700019 0.014500082 1.302799940
C -7.985699654 -1.448699951 -2.400399923
C -6.665599823 -1.829900026 -2.603699923
C -5.639599800 -1.032599926 -2.103300095
C -5.965600014 0.128100038 -1.402300119
C -4.880300045 1.047100067 -0.882200062
O -3.831899643 0.285600066 -0.275600046
N -7.253200054 0.519200087 -1.210400105
C -8.226799965 -0.277699947 -1.703700066
N -0.872060537 1.835335970 0.002301514
O -0.900340676 0.959479451 2.702130795
C -0.898366570 1.084691405 1.914480686
S 0.207884043 1.211838245 0.572951674
I 0.026649922 0.914313793 0.221601784
S -0.492669284 0.873117566 0.518013835
O 0.521264374 -0.366096288 1.016645312
S -0.853439093 0.442058682 -0.309444606
