25

C -6.020100117 -1.869099975 0.518100023
C -6.333399773 -0.551100016 1.168200016
C -5.595799923 -0.583500028 -0.147500008
C -4.130099773 -0.208900005 -0.218100011
C -3.457999706 -0.960299969 -1.391700029
C -3.990200043 1.292099953 -0.391400039
C -4.135200024 2.211800098 0.796199977
C -2.789099693 2.024800062 0.156899989
C 7.550000191 2.275899887 0.824400008
C 6.533800125 1.262199998 0.380299985
C 6.910600185 0.229800016 -0.514100015
C 5.994800091 -0.746900022 -0.922600031
C 4.716899872 -0.669499993 -0.406800032
C 4.344500065 0.325899988 0.476599991
C 5.227099895 1.304299951 0.893100023
C 2.939500332 0.110000007 0.816900015
O 2.286000252 0.845799983 1.531299949
N 2.548399925 -1.023100019 0.155999988
C 3.549900055 -1.521499991 -0.631600022
O 3.532900333 -2.463399887 -1.400400043
I 1.191401839 -0.804779530 0.576030731
O -0.884916902 -2.873794317 0.186740249
O -0.743003845 -1.236092210 -0.248006880
O -1.867833138 -0.259564400 -1.272295356
F -0.731669545 -1.991807222 -0.768870413
