31

C 6.541813374 -0.764921784 -0.772260845
C 5.413313389 0.050078213 -0.215260863
C 5.317413330 1.413878202 -0.488360882
C 4.286512852 2.175378084 0.077339143
C 3.337512970 1.616778135 0.924539089
N 2.375313044 2.410878181 1.438539147
C 1.487712979 1.881178141 2.308739185
C 1.468412876 0.550078213 2.660539150
C 2.432713032 -0.273921788 2.080939054
C 3.424512863 0.241778195 1.215139151
C 4.474013329 -0.527221799 0.644539118
O -1.009887099 -2.619021893 -1.792960882
C -1.092687130 -1.986821890 -0.747360885
C -2.017187119 -0.825221777 -0.647460878
C -1.463987112 0.435878217 -0.366360843
C -2.300587177 1.535478115 -0.232760847
C -3.682886839 1.380478144 -0.370460868
C -4.251386642 0.132278264 -0.659060895
C -5.645386696 0.001578212 -0.802360833
C -6.225687027 -1.231721759 -1.097060919
C -5.419686794 -2.351921797 -1.247460842
C -4.033386707 -2.241321802 -1.102460861
C -3.416486979 -1.003621817 -0.808660924
S 2.552906752 -3.655907869 0.197853982
C -0.705622017 -1.699312210 1.568626523
N -0.019386917 -2.309187651 0.658361137
C 3.520558357 -2.578019142 -0.262585610
C 1.617725730 -3.485432863 1.773638844
N 4.454670906 -2.103447437 0.797400475
C 1.657590270 -3.490310192 -0.630009830
N 0.936060011 -2.676682949 0.491227806
