31

C 6.541813374 -0.764921784 -0.772260845
C 5.413313389 0.050078213 -0.215260863
C 5.317413330 1.413878202 -0.488360882
C 4.286512852 2.175378084 0.077339143
C 3.337512970 1.616778135 0.924539089
N 2.375313044 2.410878181 1.438539147
C 1.487712979 1.881178141 2.308739185
C 1.468412876 0.550078213 2.660539150
C 2.432713032 -0.273921788 2.080939054
C 3.424512863 0.241778195 1.215139151
C 4.474013329 -0.527221799 0.644539118
O -1.009887099 -2.619021893 -1.792960882
C -1.092687130 -1.986821890 -0.747360885
C -2.017187119 -0.825221777 -0.647460878
C -1.463987112 0.435878217 -0.366360843
C -2.300587177 1.535478115 -0.232760847
C -3.682886839 1.380478144 -0.370460868
C -4.251386642 0.132278264 -0.659060895
C -5.645386696 0.001578212 -0.802360833
C -6.225687027 -1.231721759 -1.097060919
C -5.419686794 -2.351921797 -1.247460842
C -4.033386707 -2.241321802 -1.102460861
C -3.416486979 -1.003621817 -0.808660924
S 2.917687178 -3.616055727 0.365960121
C -0.570787311 -1.216262221 1.364621758
F 0.048450720 -2.110805750 0.594669282
C 2.747239828 -2.117774487 -0.153105050
O 1.824099541 -2.104119301 1.686320186
C 3.867166042 -2.558516264 0.572974384
N 2.005887747 -3.907715797 -0.379819840
F 1.164259195 -1.916549563 0.976375937
