27

F 2.266000032 0.053300001 -5.435299873
C 2.723099947 -0.073700003 -4.183199883
C 4.087999821 -0.189999998 -3.964900017
C 4.547100067 -0.329600006 -2.662899971
F 5.861400127 -0.455599993 -2.438499928
C 3.669500113 -0.344700009 -1.581799984
C 2.294899940 -0.208399996 -1.810199976
C 1.821599960 -0.085800000 -3.123199940
O -1.539600015 2.320100069 -0.124799997
C -2.049799919 1.204200029 -0.073799998
C -3.237400055 0.862200022 0.827099979
N -3.231400013 -0.547200024 1.313899994
S -2.662600040 -0.801199973 2.898999929
O -2.535300016 -2.224100113 3.127099991
O -3.478699923 0.024800001 3.766499996
C -1.023100019 -0.107400000 2.922899961
C -0.679799974 0.848100007 3.880800009
C 0.545099974 1.508499980 3.777499914
C 1.382200003 1.266700029 2.682800055
C 1.011000037 0.338800013 1.706099987
C -0.138099998 -0.420800000 1.895799994
C -2.915199995 -1.578600049 0.278200001
C -2.469000101 -0.972899973 -1.059999943
N -1.598999977 0.169499993 -0.869899988
S 0.361680716 2.278669596 0.023345094
N 1.582757711 -1.159179211 0.948392332
C -0.457347661 0.760547698 -0.578683019
