25

C -7.237215042 -1.903064966 0.353205025
C -7.550515175 -0.585065007 1.003305078
C -6.812914848 -0.617465019 -0.312394977
C -5.347214699 -0.242864996 -0.382994980
C -5.207315445 1.258134961 -0.556294978
C -5.352314949 2.177834988 0.631304979
C -4.006215096 1.990835071 -0.007994980
C 6.332884789 2.241934776 0.659505010
C 5.316684723 1.228235006 0.215405002
C 5.693485260 0.195835009 -0.678995013
C 4.777685165 -0.780865014 -1.087494969
C 3.499784708 -0.703464985 -0.571694970
C 3.127384901 0.291934997 0.311704993
C 4.009984970 1.270334959 0.728205025
C 1.722384930 0.076035008 0.652005017
O 1.068884850 0.811834991 1.366405010
N 1.331284761 -1.057065010 -0.008894980
C -0.015315175 -1.600265026 0.047505021
C 2.332784891 -1.555464983 -0.796495020
O 2.315784931 -2.497364998 -1.565294981
S -2.218144178 1.510323763 1.423730612
O -2.018339396 0.919536591 0.988959193
N -0.141522110 -1.282539964 -0.947164416
O -1.361574054 -0.665129900 -1.404388905
N -1.901403666 1.366305828 -0.623436630
