26

C 2.308655500 2.088361263 0.623705566
C 1.849555492 1.253161073 -0.533994436
C 0.508955598 0.893061042 -0.662094474
C 0.092455566 0.081961095 -1.719794512
C 1.007855654 -0.387938917 -2.680894375
C 2.364655495 -0.021938920 -2.562094450
C 3.433155537 -0.494838923 -3.512694359
C 2.766755581 0.770061016 -1.471794367
C 0.386955559 -1.708738923 3.383405685
S -0.215544432 -0.149338901 3.017005682
C -0.952444375 -0.750838935 1.568705559
N -1.638444424 0.023361087 0.683305562
C -2.579944372 -0.595538914 -0.240194440
C -3.682244539 0.448661089 -0.398294449
C -2.947444439 1.760661006 -0.193494439
C -1.966644526 1.421261191 0.925905526
N -0.770544469 -2.042738914 1.388405561
C 0.034255579 -2.588638783 2.384905577
N 0.351376414 0.478577584 -0.765831053
Br -0.355363727 -1.311439037 -0.730647385
O 0.306674719 -0.042302758 -1.782559156
O -0.042385787 -1.349527121 -0.300220847
C -0.461578906 -0.439887017 -0.372510672
C 0.677518129 0.250640959 0.494038969
Br 1.249314189 -1.005285382 -0.397675097
N 0.332345366 -1.392462492 0.987659931
