22

C -1.184399962 -2.936300039 -2.928200006
C -1.809599996 -2.046999931 -1.897500038
C -3.141700268 -2.227299929 -1.519400001
C -3.736200333 -1.366099834 -0.595700026
C -3.016900063 -0.299699903 -0.029999971
C -3.679600239 0.630100071 0.975600004
C -4.007199764 -0.105699927 2.275099993
C -4.928599834 1.297000170 0.396300018
C -1.669900060 -0.133699924 -0.399499983
O -0.994799972 0.916600108 0.158400029
C 0.392599940 0.704700053 0.415400028
C -1.085300088 -0.985499918 -1.344599962
C 5.476600170 0.457600057 -0.782099962
C 5.424799919 0.971800089 0.499900043
O 6.689300060 1.069800138 1.003399968
C 7.538599968 0.605300069 0.052600026
C 6.842999935 0.236300081 -1.074800014
I 3.747912884 1.841905117 1.306926012
C 4.751832962 2.273634672 2.654416561
O 3.292280674 1.518100858 1.072665930
S 2.141537189 2.662419558 0.965997458
N 0.883335054 2.143872499 0.824525356
