22

C -1.184399962 -2.936300039 -2.928200006
C -1.809599996 -2.046999931 -1.897500038
C -3.141700268 -2.227299929 -1.519400001
C -3.736200333 -1.366099834 -0.595700026
C -3.016900063 -0.299699903 -0.029999971
C -3.679600239 0.630100071 0.975600004
C -4.007199764 -0.105699927 2.275099993
C -4.928599834 1.297000170 0.396300018
C -1.669900060 -0.133699924 -0.399499983
O -0.994799972 0.916600108 0.158400029
C 0.392599940 0.704700053 0.415400028
C -1.085300088 -0.985499918 -1.344599962
C 5.476600170 0.457600057 -0.782099962
C 5.424799919 0.971800089 0.499900043
O 6.689300060 1.069800138 1.003399968
C 7.538599968 0.605300069 0.052600026
C 6.842999935 0.236300081 -1.074800014
O 1.407657504 1.599220753 -0.230921730
F 0.962040722 0.597265303 -0.517051339
Br 1.945290089 0.308083594 0.538552701
N 1.651654720 1.316799998 -0.027503490
C 0.133319452 0.991788030 -0.440683663
