27

C 0.209738106 0.738223791 3.894280910
C 0.071938097 0.425623775 2.400280952
N 1.339038134 0.571223795 1.694081068
C 2.339138031 -0.350076199 1.869480848
O 2.297238111 -1.289276123 2.650180817
N 3.405437946 -0.079076231 1.050781012
C 4.605138302 -0.874976218 1.175781012
C 5.611038208 -0.504676282 0.128880948
C 6.726838112 0.283423781 0.423880935
C 7.625238419 0.613023758 -0.587019026
C 7.373638153 0.147423774 -1.866819143
N 6.304038048 -0.608876169 -2.192219019
C 5.449538231 -0.916876256 -1.190219164
C -8.349362373 -0.891976178 -2.009119034
C -7.029261589 -1.273176193 -2.212419033
C -6.003261566 -0.475876272 -1.712019205
C -6.329261780 0.684823751 -1.011018991
C -5.243961811 1.603823662 -0.490919054
O -4.195561886 0.842323780 0.115680963
N -7.616861820 1.075923800 -0.819119036
C -8.590461731 0.279023767 -1.312418938
C -1.908428192 1.868748069 2.553199530
O -1.298012376 1.094858289 1.949311614
C -3.170256138 2.349814653 1.383925557
O -1.448538184 -0.302924514 -0.047990300
C -1.755155087 0.834212780 0.570409536
C -3.031797171 1.681272149 0.438764483
