26

C 2.073199987 2.890500069 1.161000013
C 1.614099860 2.055299997 0.003300041
C 0.273499906 1.695199966 -0.124799967
C -0.143000096 0.884099960 -1.182500005
C 0.772399902 0.414199948 -2.143599987
C 0.258199900 -0.486600041 -3.249199867
C 2.129199982 0.780199945 -2.024799824
C 3.197700024 0.307299942 -2.975399971
C 2.531300068 1.572199821 -0.934499979
C 0.151499927 -0.906599998 3.920700073
S -0.451000094 0.652799964 3.554300308
C -1.187900066 0.051299930 2.105999947
N -1.873900175 0.825499952 1.220600009
C -2.815399885 0.206599951 0.297100037
C -3.917700052 1.250799894 0.139000028
C -3.182899952 2.562799931 0.343800038
C -2.202100039 2.223400116 1.463199973
N -1.006000161 -1.240600109 1.925699949
C -0.201200083 -1.786499977 2.922200203
C 0.211099923 -3.221899986 2.790100098
S 2.143208265 -1.359519124 1.714747548
I 0.243616939 -2.326390982 1.484837532
N 0.351058602 -1.455803037 -2.374776363
I 0.243385583 -1.537846804 -1.667914510
F 1.047923207 -0.122762442 -0.466682017
N -0.668187380 0.226813972 0.140188217
