32

C -4.174499989 1.833799958 -1.692899942
C -4.863200188 0.878199935 -0.762699962
N -6.032400131 1.312700033 -0.215099931
C -6.734000206 0.468999982 0.600500107
C -8.063699722 0.931900024 1.189600110
F -8.175700188 2.284699917 1.310900092
F -8.277099609 0.435399979 2.445499897
F -9.136099815 0.526600003 0.451200098
C -6.282899857 -0.823600054 0.876500130
C -5.077099800 -1.254099965 0.326800078
C -4.346799850 -0.386500001 -0.486599922
N 8.276599884 1.464800000 -1.626499891
S 8.226599693 1.080299973 0.006900102
O 9.146400452 -0.020100027 0.181100085
O 8.369700432 2.329400063 0.716700077
C 6.570799828 0.489099979 0.192800090
C 6.310100079 -0.879999995 0.133600086
C 5.001299858 -1.339400053 0.307000101
C 3.950499773 -0.441200018 0.546600103
N 2.660799742 -0.991400003 0.698600054
C 1.477899909 -0.316000044 0.957200050
O 1.364999890 0.890599966 1.141500115
C 4.231200218 0.926199913 0.614100099
C 5.538700104 1.393900037 0.443100095
S -1.397875905 -2.176150799 1.501185536
C -3.192960262 -2.341612339 1.375957012
N -0.607162237 -1.862543464 0.126670688
N -0.720817208 -2.512272358 1.266322851
Br -2.976988792 -1.548314929 1.166120768
Cl -0.191260234 -1.129917741 0.566599131
O -1.267772555 -3.244506836 0.852882028
I -0.947129607 -1.142693877 0.430485427
