31

C 6.155000210 0.201499999 -1.213199973
C 5.026500225 1.016499996 -0.656199992
C 4.930600166 2.380300045 -0.929300010
C 3.899699926 3.141799927 -0.363599986
C 2.950700045 2.583199978 0.483599991
N 1.988499999 3.377300024 0.997600019
C 1.100900054 2.847599983 1.867799997
C 1.081599951 1.516499996 2.219599962
C 2.045900106 0.692499995 1.639999986
C 3.037699938 1.208199978 0.774200022
C 4.087200165 0.439200014 0.203600004
C -1.850800037 1.402300000 -0.807299972
C -2.687400103 2.501899958 -0.673699975
C -4.069699764 2.346899986 -0.811399996
C -4.638199806 1.098700047 -1.100000024
C -6.032199860 0.967999995 -1.243299961
C -6.612500191 -0.265300006 -1.537999988
C -5.806499958 -1.385499954 -1.688400030
C -4.420199871 -1.274899960 -1.543400049
C -3.803299904 -0.037200000 -1.249600053
C -2.404000044 0.141200006 -1.088400006
Cl 0.795746028 -2.020819187 -0.355567038
O 2.209152222 0.174923360 -0.385447443
I 1.774789453 0.710401714 -0.507093847
Br -2.473648548 -0.278433472 0.327026486
C 0.364689499 -0.295405269 0.676139712
Cl 1.318794250 -1.047446012 0.715583682
O -0.130167976 -1.452548862 -1.921229243
F 1.256472588 0.192487314 0.058371626
Cl -0.029133724 0.480917335 0.364621192
F -1.210142016 -0.449596226 1.011178017
