26

C 2.073199987 2.890500069 1.161000013
C 1.614099979 2.055299759 0.003300011
C 0.273499966 1.695199847 -0.124799967
C -0.143000051 0.884099901 -1.182500005
C 0.772399962 0.414199889 -2.143599987
C 2.129199982 0.780199885 -2.024799824
C 3.197700024 0.307299882 -2.975399971
C 2.531300068 1.572199821 -0.934499979
C 0.151499957 -0.906600118 3.920700073
S -0.451000035 0.652799904 3.554300308
C -1.187900066 0.051299870 2.105999947
N -1.873900056 0.825499892 1.220600009
C -2.815399885 0.206599891 0.297100008
C -3.917700052 1.250799894 0.138999999
C -3.182899952 2.562799931 0.343800008
C -2.202100039 2.223400116 1.463199973
N -1.006000042 -1.240600109 1.925699949
C -0.201200038 -1.786499977 2.922200203
C 0.211099952 -3.221899986 2.790100098
C 0.151605189 -2.098625898 -2.304345608
N 1.133292794 -3.146324158 -0.643453360
N 1.754231572 -2.527405500 0.820798695
Br 1.042637825 -2.639938354 -1.856104970
F 1.413833499 -3.096898794 2.278566122
C 0.179704428 -0.520916820 -3.281343937
O 0.314430058 -4.372414112 -0.302878439
