20

Br -5.110599995 4.723100185 1.408400059
C -4.126200676 3.241899967 0.767399967
C -3.422200203 2.439800024 1.661499977
C -2.697600126 1.343199968 1.187099934
C -2.665700197 1.040099978 -0.184900045
C -3.387800217 1.860599995 -1.068099976
C -4.113300323 2.957400084 -0.595400035
C 5.327899933 -1.492799997 -0.970400095
N 4.219399929 -1.146299839 -0.083000064
C 2.920599699 -1.340199947 -0.770200014
C 1.741599917 -0.908400059 0.122899950
O 1.883399725 0.462100029 0.553799927
C 3.125599861 0.633700013 1.250699997
C 4.322400093 0.255400002 0.364599943
O -0.356559455 -0.920802355 -0.781411529
Br -0.647984207 0.644973636 0.105110720
O -0.295184433 -0.086955667 -1.642812133
Br 0.243797868 1.731618047 -1.223286390
N -1.284211278 0.094096661 0.641441464
C 0.477027893 0.432264447 -0.912938952
