25

C -6.020100117 -1.869099975 0.518100023
C -6.333399773 -0.551100016 1.168200016
C -5.595799923 -0.583500028 -0.147500008
C -4.130099773 -0.208900005 -0.218100011
C -3.990200043 1.292099953 -0.391400039
C -4.135200024 2.211800098 0.796199977
C -2.789099693 2.024800062 0.156899989
C 7.550000191 2.275899887 0.824400008
C 6.533800125 1.262199998 0.380299985
C 6.910600185 0.229799986 -0.514100015
C 5.994800091 -0.746900022 -0.922599971
C 4.716899872 -0.669499993 -0.406800032
C 4.344500065 0.325899988 0.476599991
C 5.227099895 1.304299951 0.893100023
C 2.939500093 0.109999992 0.816900015
O 2.286000013 0.845799983 1.531299829
N 2.548399925 -1.023100019 0.155999988
C 3.549900055 -1.521499991 -0.631600022
O 3.532900095 -2.463399887 -1.400400162
Cl 0.931045055 -2.088912010 0.694413304
I -1.099141359 -2.036895275 0.281381130
Br -1.973512888 0.189832225 -1.092661858
N 1.284251451 -0.423449397 0.574757099
I -1.042307138 -1.100712895 -0.548594594
Br -0.800002813 -1.024447441 -0.234678030
