32

C -4.174499989 1.833799958 -1.692899942
C -4.863200188 0.878199995 -0.762700021
N -6.032400131 1.312700033 -0.215100005
C -6.734000206 0.469000012 0.600499988
C -8.063699722 0.931900024 1.189599991
F -8.175700188 2.284699917 1.310899973
F -8.277099609 0.435400009 2.445499897
F -9.136099815 0.526600003 0.451200008
C -6.282899857 -0.823599994 0.876500010
C -5.077099800 -1.254099965 0.326799989
C -4.346799850 -0.386500001 -0.486600012
C -3.102799892 -0.878400028 -1.103299975
O -3.211199999 -1.770799994 -1.940500021
N -1.884899974 -0.326000005 -0.712100029
C -1.662500024 0.378399998 0.550599992
C -0.991299987 -0.560500026 1.557899952
C 0.264299989 -1.254999995 0.991400003
C -0.010200000 -1.857300043 -0.399399996
C -0.668399990 -0.838599980 -1.328400016
N 8.276599884 1.464800000 -1.626500010
S 8.226599693 1.080299973 0.006900000
O 9.146400452 -0.020099999 0.181099996
O 8.369700432 2.329400063 0.716700017
C 6.570799828 0.489100009 0.192800000
C 6.310100079 -0.879999995 0.133599997
C 5.001299858 -1.339400053 0.307000011
C 3.950500011 -0.441199988 0.546599984
C 4.231200218 0.926199973 0.614099979
C 5.538700104 1.393900037 0.443100005
I -0.779719353 1.046176672 -1.176295877
I -1.730901957 1.172861338 0.411959231
I 0.239189222 -0.046884220 0.591412067
