27

O 0.164499998 -0.615700006 -0.929499984
C 1.304600000 -0.226199999 -0.693700016
N 1.778699994 0.249799997 0.524500012
C 2.294899940 -0.208399996 -1.810199976
C 1.821599960 -0.085800000 -3.123199940
C 2.723099947 -0.073700003 -4.183199883
F 2.266000032 0.053299993 -5.435299873
C 4.087999821 -0.189999998 -3.964900017
C 4.547100067 -0.329600006 -2.662899971
F 5.861400127 -0.455599993 -2.438499928
C 3.669500113 -0.344700009 -1.581799984
O -1.539600015 2.320099831 -0.124799967
C -2.049799919 1.204200029 -0.073799968
C -3.237400055 0.862200022 0.827099919
N -3.231400013 -0.547200024 1.313900113
S -2.662600040 -0.801199973 2.898999691
O -2.535300016 -2.224100113 3.127099991
O -3.478699923 0.024800003 3.766499996
C -2.915199995 -1.578600049 0.278200030
C -2.469000101 -0.972899973 -1.059999943
N -1.598999977 0.169499993 -0.869899988
Br 1.016353488 -0.378121674 3.097020149
I 0.465386152 -0.162568569 1.453413844
Br 0.092568338 0.775865078 3.934983730
Cl -0.594517052 0.483169794 3.850018978
Cl -0.607571602 -0.240355730 1.056182146
O 1.240479112 0.739946008 2.726672649
