25

C -6.020100117 -1.869099975 0.518100023
C -6.333400249 -0.551099956 1.168200016
C -5.595799923 -0.583499968 -0.147500008
C -4.130099773 -0.208899960 -0.218100011
C -3.990200520 1.292099953 -0.391400009
C -4.135200024 2.211800098 0.796199918
C -2.789100170 2.024800062 0.156899989
C 7.549999714 2.275899887 0.824399948
C 6.533799648 1.262199998 0.380299985
C 6.910600185 0.229800045 -0.514100075
C 5.994800091 -0.746899962 -0.922600031
C 4.716899872 -0.669499934 -0.406800002
C 4.344499588 0.325900048 0.476599991
C 5.227099895 1.304299951 0.893100023
C 2.939499855 0.110000044 0.816900015
O 2.285999775 0.845800042 1.531299949
N 2.548399687 -1.023100019 0.155999988
C 1.201799750 -1.566300035 0.212399989
C 0.276199758 -0.874099970 -0.780600071
C 3.549899817 -1.521499991 -0.631600022
O 3.532899857 -2.463399887 -1.400400043
O -2.320481777 -0.523795962 -1.524959564
Cl -1.084308624 -1.479211926 -0.709178448
C -3.340713501 -0.756967664 -1.236074328
Br -1.591890097 -2.214112282 0.037972704
