26

C 2.073199987 2.890500069 1.161000013
C 1.614099860 2.055299997 0.003300041
C 0.273499906 1.695199966 -0.124799967
C -0.143000096 0.884099960 -1.182500005
C 0.772399902 0.414199948 -2.143599987
C 0.258199900 -0.486600041 -3.249199867
C 2.129199982 0.780199945 -2.024799824
C 3.197700024 0.307299942 -2.975399971
C 2.531300068 1.572199821 -0.934499979
C 0.151499927 -0.906599998 3.920700073
S -0.451000094 0.652799964 3.554300308
C -1.187900066 0.051299930 2.105999947
N -1.873900175 0.825499952 1.220600009
C -2.815399885 0.206599951 0.297100037
C -3.917700052 1.250799894 0.139000028
C -3.182899952 2.562799931 0.343800038
C -2.202100039 2.223400116 1.463199973
N -1.006000161 -1.240600109 1.925699949
C -0.201200083 -1.786499977 2.922200203
C 0.211099923 -3.221899986 2.790100098
Br -0.258296490 1.346961260 1.427653313
I -0.821251750 1.309429884 -0.792104959
C -2.849871397 0.580480874 -0.222003996
Cl -1.995514631 1.094102144 -0.983080268
Br -2.352613926 -0.299873531 -2.969940186
S -1.360101104 1.205380678 -2.396339893
