26

C 2.073199987 2.890500069 1.161000013
C 1.614100099 2.055299997 0.003300011
C 0.273500085 1.695199966 -0.124799997
C -0.142999932 0.884100080 -1.182499886
C 0.772400081 0.414200068 -2.143599987
C 0.258200049 -0.486599922 -3.249200106
C 2.129199982 0.780200064 -2.024800062
C 3.197700024 0.307300061 -2.975399971
C 2.531300068 1.572200060 -0.934500039
C 0.151500076 -0.906599998 3.920700073
S -0.450999916 0.652800083 3.554300070
C -1.187899828 0.051300049 2.105999947
N -1.873899937 0.825500071 1.220600009
C -2.815399885 0.206600070 0.297100008
C -3.917700052 1.250800133 0.138999999
C -3.182899952 2.562799931 0.343800008
C -2.202099800 2.223400116 1.463200092
N -1.006000042 -1.240599871 1.925699949
C -0.201199919 -1.786499977 2.922199965
O -1.338059187 -3.078810215 -2.057522297
Cl 0.186618179 -2.693081617 -1.652992010
N -0.001622647 -2.023752213 -0.744883716
I 0.197601765 -3.357252121 0.619837821
F -0.427462786 -3.300509453 2.272633076
S 0.188467562 -0.798202157 -2.112627506
Cl 0.425306857 -3.139640093 1.766119957
