31

C 6.541813374 -0.764921784 -0.772260845
C 5.413313389 0.050078213 -0.215260863
C 5.317413330 1.413878202 -0.488360882
C 4.286512852 2.175378084 0.077339143
C 3.337512970 1.616778135 0.924539089
N 2.375313044 2.410878181 1.438539147
C 1.487712979 1.881178141 2.308739185
C 1.468412876 0.550078213 2.660539150
C 2.432713032 -0.273921788 2.080939054
C 3.424512863 0.241778195 1.215139151
C 4.474013329 -0.527221799 0.644539118
O -1.009887099 -2.619021893 -1.792960882
C -1.092687130 -1.986821890 -0.747360885
C -2.017187119 -0.825221777 -0.647460878
C -1.463987112 0.435878217 -0.366360843
C -2.300587177 1.535478115 -0.232760847
C -3.682886839 1.380478144 -0.370460868
C -4.251386642 0.132278264 -0.659060895
C -5.645386696 0.001578212 -0.802360833
C -6.225687027 -1.231721759 -1.097060919
C -5.419686794 -2.351921797 -1.247460842
C -4.033386707 -2.241321802 -1.102460861
C -3.416486979 -1.003621817 -0.808660924
C 1.911246777 -2.896673441 -0.034895547
C 3.851263762 -1.507960916 0.522586226
O 1.236868620 -3.115804434 -0.622045875
Cl 2.500882149 -1.805116892 2.551000834
S 1.734943986 -1.766451001 -1.365839958
F 1.922912717 -2.068796158 -0.183706611
O 0.004655672 -1.183835030 0.597562671
C 0.290581614 -2.469943762 0.774878681
