25

C -7.014590740 -1.855718970 0.427328587
C -7.327890396 -0.537719071 1.077428579
C -6.590290546 -0.570119083 -0.238271415
C -5.124590397 -0.195519060 -0.308871418
C -4.452490330 -0.946919084 -1.482471466
C -4.984690666 1.305480957 -0.482171416
C -5.129690647 2.225181103 0.705428541
C -3.783590317 2.038181067 0.066128582
C 6.555509567 2.289280891 0.733628571
C 5.539309502 1.275581002 0.289528549
C 5.916109562 0.243180946 -0.604871452
C 5.000309467 -0.733519077 -1.013371348
C 3.722409248 -0.656119049 -0.497571409
C 3.350009441 0.339280933 0.385828555
C 4.232609272 1.317680955 0.802328587
C 1.945009589 0.123380944 0.726128578
O 1.291509509 0.859180927 1.440528512
N 1.553909421 -1.009719014 0.065228581
C 0.207309484 -1.552919030 0.121628582
C 2.555409431 -1.508118987 -0.722371459
O 2.538409710 -2.450018883 -1.491171479
O -2.876378298 -0.753339171 -1.945441008
F -2.219219923 -1.124191880 -0.819581985
N -0.484654039 -1.496838927 -0.750085592
O -2.069970846 -1.846471310 -0.079937145
