21

C -3.279479980 -3.498666763 -0.218919992
C -3.095080137 -2.641366720 1.024780035
C -3.311280012 -1.169966698 0.741180003
C -4.576479912 -0.628766656 1.041180015
C -4.858880043 0.714333355 0.804780006
C -3.881879807 1.536233306 0.259680033
C -2.624079943 1.015633345 -0.051519990
C -2.321280003 -0.332566649 0.180380002
C 3.604120016 -1.233866692 -1.568519950
C 4.538120270 -0.650166631 -0.490319967
C 4.866620064 0.857833385 -0.652819991
C 3.745620012 1.867733240 -0.353219986
C 4.302820206 3.279533386 -0.215719998
O 2.810819864 1.879633427 -1.430019975
C 4.080319881 -0.995566666 0.929080009
Br 0.849277735 1.136241674 0.364602953
C 0.787029386 -0.223059386 0.266988218
S 0.377494514 0.212946191 -0.192308962
S 0.530476749 0.081379443 -1.847512245
Br 1.474433661 2.144153833 -0.754471660
O -1.035148263 -0.886587799 -0.851611316
