25

C -4.249800205 2.642199993 0.101099998
C -4.111999989 1.141000032 0.345400035
C -4.301099777 0.359500051 -0.962300003
C -4.104800224 -1.145699978 -0.732599974
C -4.236100197 -1.913300037 -2.046200037
C -2.743600130 -1.418099999 -0.079099998
N -2.642800331 -0.647099972 1.184200048
S -1.471900225 -1.172399998 2.306200027
O -1.568000078 -0.337599963 3.485699892
O -1.548200130 -2.614399910 2.406800032
C -2.751400232 0.816900015 0.976000011
O 4.103199959 -1.499300003 -1.813499928
C 4.493000031 -0.482099980 -1.247300029
N 3.759599686 0.192900032 -0.279300004
C 5.774799824 0.153200030 -1.559200048
C 6.542799950 1.037799954 -0.818599999
C 7.737999916 1.427399993 -1.493399858
C 7.853799820 0.824000001 -2.723900080
S 6.536300182 -0.210199967 -3.056699991
C 0.495753527 -0.187328234 0.009151310
Cl 1.203906536 -1.113434553 1.565097570
Cl 1.910939813 0.205772758 -0.167072862
Br 1.929207802 -0.243440211 1.314911127
N -0.101775706 -0.873383522 1.747644901
I 1.879701734 -0.593615413 -0.693874478
