25

C -4.937789440 2.791952610 0.417242140
C -4.799989223 1.290752649 0.661542177
C -4.989089012 0.509252667 -0.646157861
C -4.792789459 -0.995947361 -0.416457832
C -4.924089432 -1.763547421 -1.730057955
C -3.431589365 -1.268347383 0.237042144
N -3.330789566 -0.497347325 1.500342131
S -2.159889460 -1.022647381 2.622342110
O -2.255989313 -0.187847346 3.801841974
O -2.236189365 -2.464647293 2.722942114
C -3.439389467 0.966652632 1.292142153
O 3.415210485 -1.349547386 -1.497357845
C 3.805010557 -0.332347363 -0.931157887
N 3.071610451 0.342652649 0.036842138
C 5.086810589 0.302952647 -1.243057966
C 5.854810715 1.187552571 -0.502457857
C 7.050010681 1.577152610 -1.177257776
C 7.165810585 0.973752618 -2.407757998
S 5.848310947 -0.060447350 -2.740557909
O 0.682390571 0.249625787 0.169663042
O 0.977348387 -0.662180364 -1.865480185
S 0.580257177 1.063461661 -1.159659982
Cl 1.672348499 -0.658003509 0.578985751
S -0.320504546 2.036584139 2.377145529
O 1.528681278 -0.899815023 -0.348492324
