20

C -2.983900070 -2.014100075 0.710200012
C -2.731499910 -1.452700138 -0.684300005
C -1.895499945 -0.155000091 -0.732400000
C -2.665699959 1.040099859 -0.184899986
C -2.697599888 1.343199849 1.187100172
C -3.422199965 2.439799786 1.661499977
C -4.126200199 3.241899967 0.767400026
Br -5.110599995 4.723100185 1.408400059
C -4.113299847 2.957399845 -0.595399976
C -3.387799978 1.860599875 -1.068099976
C 5.327899933 -1.492800236 -0.970399916
N 4.219399929 -1.146300077 -0.083000004
C 2.920599937 -1.340200067 -0.770200014
C 1.741600037 -0.908400059 0.122900002
O 1.883399963 0.462099880 0.553799987
C 3.125600100 0.633699894 1.250699997
C 4.322400093 0.255399883 0.364600003
N -1.547233343 -0.866965055 -1.177834749
Br 0.124962568 0.592782140 -0.109661758
Cl -0.340803504 -0.915503263 0.739385843
