26

C 2.073199987 2.890500069 1.161000013
C 1.614099979 2.055299997 0.003300000
C 0.273499995 1.695199966 -0.124799997
C -0.143000007 0.884100020 -1.182500005
C 0.772400022 0.414200008 -2.143599987
C 0.258199990 -0.486600012 -3.249200106
C 2.129199982 0.780200005 -2.024800062
C 3.197700024 0.307300001 -2.975399971
C 2.531300068 1.572199941 -0.934499979
C 0.151500002 -0.906599998 3.920700073
S -0.451000005 0.652800024 3.554300070
C -1.187899947 0.051300000 2.105999947
N -1.873900056 0.825500011 1.220600009
C -2.815399885 0.206599995 0.297100008
C -3.917700052 1.250800014 0.138999999
C -3.182899952 2.562799931 0.343800008
C -2.202100039 2.223400116 1.463199973
N -1.006000042 -1.240599990 1.925699949
C -0.201199993 -1.786499977 2.922199965
C 0.211099997 -3.221899986 2.790100098
C 1.058300018 -3.441900015 1.532600045
O -0.427258611 1.104369283 -1.102798700
O 0.554326653 -1.284655452 -0.381578326
I 0.513945758 0.100190081 0.258626044
S 0.361680716 2.278669596 0.023345094
N 1.582757711 -1.159179211 0.948392332
