27

O 2.312063217 -1.228021145 2.981473684
C 2.353963137 -0.288821101 2.200773716
N 3.420263052 -0.017821133 1.382073641
C 4.619963169 -0.813721120 1.507073641
C 5.625863075 -0.443421185 0.460173696
C 6.741662979 0.344678879 0.755173683
C 7.640063286 0.674278855 -0.255726278
C 7.388463020 0.208678871 -1.535526276
N 6.318862915 -0.547621071 -1.860926151
C 5.464363098 -0.855621159 -0.858926356
N 1.353863120 0.632478893 2.025373697
C -8.334536552 -0.830721080 -1.677826166
C -7.014436722 -1.211921215 -1.881126165
C -5.988436699 -0.414621174 -1.380726337
C -6.314436913 0.746078849 -0.679726303
C -5.229136944 1.665078878 -0.159626305
O -4.180736542 0.903578877 0.446973711
N -7.602036953 1.137178898 -0.487826288
C -8.575636864 0.340278864 -0.981126249
F -0.669680953 -0.950147450 2.955303192
Br 0.647605300 0.456110060 2.735233068
O -0.531717122 2.473183393 3.088254690
S -1.132465482 2.032299042 1.198426366
S -2.757212162 1.493993878 0.889729738
C -1.648944736 1.111168742 -0.064444393
F -0.420429647 2.028997183 4.471152306
F -2.741607189 0.778445423 -0.376360357
