26

C 2.073199987 2.890500069 1.161000013
C 1.614099860 2.055299997 0.003300011
C 0.273499876 1.695199966 -0.124799967
C -0.143000126 0.884100080 -1.182500005
C 0.772399902 0.414200068 -2.143599987
C 2.129199743 0.780200064 -2.024800301
C 3.197699785 0.307300061 -2.975399971
C 2.531299829 1.572200060 -0.934499979
C 0.151499867 -0.906599998 3.920700073
S -0.451000124 0.652800083 3.554299831
C -1.187900066 0.051300049 2.105999947
N -1.873900175 0.825500071 1.220600009
C -2.815399885 0.206600055 0.297100008
C -3.917700052 1.250800133 0.138999999
C -3.182900190 2.562799931 0.343800008
C -2.202100039 2.223400116 1.463199973
N -1.006000161 -1.240599871 1.925699949
C -0.201200113 -1.786499977 2.922199726
C 0.211099863 -3.221899986 2.790100098
C 1.058299899 -3.441900015 1.532600045
I -1.196920872 0.070684969 -3.252625465
O -0.736820877 -0.756577015 -2.582391262
O -0.015998900 -2.528335571 -1.850181937
S 0.379093468 -2.476647615 0.255759388
O -1.642654419 -1.679697275 -0.837975740
C 0.397999525 -0.790419102 0.659772933
