20

C -2.419582367 -2.628676414 0.537382364
C -2.167182207 -2.067276478 -0.857117653
C -1.331182241 -0.769576430 -0.905217648
C -2.101382256 0.425523520 -0.357717633
C -2.133282185 0.728623509 1.014282465
C -2.857882261 1.825223565 1.488682270
C -3.561882496 2.627323627 0.594582379
Br -4.546282291 4.108523846 1.235582352
C -3.548982143 2.342823505 -0.768217623
C -2.823482275 1.246023536 -1.240917683
C 5.892217636 -2.107376575 -1.143217564
N 4.783717632 -1.760876417 -0.255817652
C 3.484917641 -1.954776406 -0.943017662
C 2.305917740 -1.522976398 -0.049917646
O 2.447717667 -0.152476460 0.380982339
C 3.689917803 0.019123554 1.077882290
C 4.886717796 -0.359176457 0.191782355
C 1.211361885 -1.641568422 -0.737460554
O -0.048004888 -0.811712801 0.014326174
N 0.929567635 -2.343908548 -1.679415584
