31

C 6.155000210 0.201499999 -1.213199973
C 5.026500225 1.016499996 -0.656200051
C 4.930600166 2.380300045 -0.929300070
C 3.899700165 3.141799927 -0.363600016
C 2.950700283 2.583199978 0.483599961
N 1.988500118 3.377300024 0.997599959
C 1.100900173 2.847599983 1.867799878
C 1.081600070 1.516499996 2.219599724
C 2.045900345 0.692499995 1.639999986
C 3.037700176 1.208199978 0.774199963
C 4.087200165 0.439200044 0.203599989
C -1.850799918 1.402300000 -0.807299972
C -2.687399864 2.501899958 -0.673699975
C -4.069699287 2.346899986 -0.811400056
C -4.638199806 1.098700047 -1.100000024
C -6.032199860 0.967999995 -1.243299961
C -6.612500191 -0.265300035 -1.537999988
C -5.806499958 -1.385499954 -1.688400030
C -4.420199871 -1.274899960 -1.543400049
C -3.803299665 -0.037199974 -1.249600053
C -2.403999805 0.141200066 -1.088400006
C -1.070409417 -0.734651804 -1.061484933
C 0.060843766 -2.511091232 -0.492002666
Br 4.548543930 -1.689237833 1.272679567
C 2.260590315 -1.827266693 -1.076087475
N 3.439026833 -2.559473991 -0.778294683
Cl 3.629115105 -0.893650055 0.551178694
O 4.173882008 -2.510621309 -1.008423328
O 1.270904183 -2.848227501 -0.316672981
C -0.445182920 -2.676612377 -2.000688076
O -0.530259430 -0.979088068 -0.572117329
