31

C 6.155000210 0.201499999 -1.213199973
C 5.026500225 1.016499996 -0.656200051
C 4.930600166 2.380300045 -0.929300070
C 3.899700165 3.141799927 -0.363600016
C 2.950700283 2.583199978 0.483599961
N 1.988500118 3.377300024 0.997599959
C 1.100900173 2.847599983 1.867799878
C 1.081600070 1.516499996 2.219599724
C 2.045900345 0.692499995 1.639999986
C 3.037700176 1.208199978 0.774199963
C 4.087200165 0.439200044 0.203599989
C -1.850799918 1.402300000 -0.807299972
C -2.687399864 2.501899958 -0.673699975
C -4.069699287 2.346899986 -0.811400056
C -4.638199806 1.098700047 -1.100000024
C -6.032199860 0.967999995 -1.243299961
C -6.612500191 -0.265300035 -1.537999988
C -5.806499958 -1.385499954 -1.688400030
C -4.420199871 -1.274899960 -1.543400049
C -3.803299665 -0.037199974 -1.249600053
C -2.403999805 0.141200066 -1.088400006
O -0.370140016 0.222684026 -1.207812190
I -0.322166681 -1.470506907 -0.883874595
F 3.613559961 -1.698352814 0.924453616
Br 2.000550985 -1.228041649 -0.491579413
Br 2.744669676 -2.319604874 -0.799197912
Cl 3.047692060 -1.250910759 1.068135619
I 3.023878813 -2.596516371 -1.330075264
O 1.361018419 -2.238591433 0.209112883
Cl -0.422481984 -2.021395922 -1.656461954
N 0.021047235 0.119331479 -0.189285874
