31

C 6.155000210 0.201499999 -1.213199973
C 5.026500225 1.016499996 -0.656200051
C 4.930600166 2.380300045 -0.929300070
C 3.899700165 3.141799927 -0.363600016
C 2.950700283 2.583199978 0.483599961
N 1.988500118 3.377300024 0.997599959
C 1.100900173 2.847599983 1.867799878
C 1.081600070 1.516499996 2.219599724
C 2.045900345 0.692499995 1.639999986
C 3.037700176 1.208199978 0.774199963
C 4.087200165 0.439200044 0.203599989
C -1.850799918 1.402300000 -0.807299972
C -2.687399864 2.501899958 -0.673699975
C -4.069699287 2.346899986 -0.811400056
C -4.638199806 1.098700047 -1.100000024
C -6.032199860 0.967999995 -1.243299961
C -6.612500191 -0.265300035 -1.537999988
C -5.806499958 -1.385499954 -1.688400030
C -4.420199871 -1.274899960 -1.543400049
C -3.803299665 -0.037199974 -1.249600053
C -2.403999805 0.141200066 -1.088400006
O -0.456968904 0.222338796 -1.332716823
C -0.632043362 -1.577092648 -0.447750092
Br 1.481580853 -1.999120951 0.775311232
O 1.196414828 0.257337689 -0.419958085
O 2.086009741 -1.155864000 -0.631771445
Cl 2.366238117 0.054343939 0.269791603
S 1.202633142 -1.925579548 -0.978560209
S 1.322370410 -1.550005198 0.138563991
N -1.726863146 -1.185892105 -1.210161209
S 0.317714691 0.788980365 -0.110015005
