31

C 6.155000210 0.201499999 -1.213199973
C 5.026500225 1.016499996 -0.656200051
C 4.930600166 2.380300045 -0.929300070
C 3.899700165 3.141799927 -0.363600016
C 2.950700283 2.583199978 0.483599961
N 1.988500118 3.377300024 0.997599959
C 1.100900173 2.847599983 1.867799878
C 1.081600070 1.516499996 2.219599724
C 2.045900345 0.692499995 1.639999986
C 3.037700176 1.208199978 0.774199963
C 4.087200165 0.439200044 0.203599989
C -1.850799918 1.402300000 -0.807299972
C -2.687399864 2.501899958 -0.673699975
C -4.069699287 2.346899986 -0.811400056
C -4.638199806 1.098700047 -1.100000024
C -6.032199860 0.967999995 -1.243299961
C -6.612500191 -0.265300035 -1.537999988
C -5.806499958 -1.385499954 -1.688400030
C -4.420199871 -1.274899960 -1.543400049
C -3.803299665 -0.037199974 -1.249600053
C -2.403999805 0.141200066 -1.088400006
C -1.267503738 0.873079062 -0.791698098
C -0.199096382 0.500028431 0.665090263
S 0.487379432 -1.430537939 -0.438064754
C 0.268634796 -0.255226135 -1.445627332
O 0.727274895 0.799377263 -1.284338713
N -0.640401006 1.485425830 -0.042444527
Br -0.264608681 -0.100621819 0.214069605
N 0.752580166 0.570530653 -0.343053818
Cl -0.817549765 -0.590548515 0.090453386
C 2.196617603 1.285482049 0.264935076
