27

O 0.164499998 -0.615700006 -0.929499984
C 1.304600000 -0.226199999 -0.693700016
N 1.778699994 0.249799997 0.524500012
C 2.294899940 -0.208399996 -1.810199976
C 1.821599960 -0.085800000 -3.123199940
C 2.723099947 -0.073700003 -4.183199883
F 2.266000032 0.053300001 -5.435299873
C 4.087999821 -0.189999998 -3.964900017
C 4.547100067 -0.329600006 -2.662899971
F 5.861400127 -0.455599993 -2.438499928
C 3.669500113 -0.344700009 -1.581799984
O -1.539600015 2.320100069 -0.124799997
C -2.049799919 1.204200029 -0.073799998
C -3.237400055 0.862200022 0.827099979
N -3.231400013 -0.547200024 1.313899994
S -2.662600040 -0.801199973 2.898999929
O -2.535300016 -2.224100113 3.127099991
O -3.478699923 0.024800001 3.766499996
C -2.915199995 -1.578600049 0.278200001
C -2.469000101 -0.972899973 -1.059999943
N -1.598999977 0.169499993 -0.869899988
Cl 0.795746028 -2.020819187 -0.355567038
O 2.209152222 0.174923360 -0.385447443
I 1.774789453 0.710401714 -0.507093847
Br -2.473648548 -0.278433472 0.327026486
C 0.364689499 -0.295405269 0.676139712
Cl 1.318794250 -1.047446012 0.715583682
