26

C -4.117395401 1.414747596 0.625295281
C -3.382595062 2.726747513 0.830095291
C -2.401795387 2.387347698 1.949495196
N -2.073595285 0.989447653 1.706895232
C -3.015095234 0.370547622 0.783395290
C 1.873504758 3.054447651 1.647295237
C 1.414404750 2.219247580 0.489595264
C 0.073804766 1.859147549 0.361495256
C -0.342695236 1.048047662 -0.696204782
C 0.572704792 0.578147650 -1.657304764
C 0.058504760 -0.322652400 -2.762904882
C 0.431604743 -1.801152468 -2.598104715
N -0.052695230 -2.336052418 -1.347704768
C 0.776804745 -2.860852480 -0.390404731
O 1.944304824 -3.175152302 -0.568104744
N 0.111104757 -2.967652321 0.807695270
C 0.858604789 -3.277952433 2.018895388
C 0.011404768 -3.057952404 3.276395321
C 1.929504752 0.944147646 -1.538504839
C 2.998004913 0.471247613 -2.489104748
C 2.331604958 1.736147523 -0.448204726
C -1.161084175 -0.880207539 0.039282784
F -0.237814337 0.863975942 2.993975163
C -0.698786438 -0.127447709 2.449321508
N -1.254050493 -0.051287465 0.318624914
O -0.858301699 0.220671192 1.401629925
