26

C 2.073199987 2.890500069 1.161000013
C 1.614099979 2.055299997 0.003300011
C 0.273499936 1.695199966 -0.124800026
C -0.143000066 0.884099960 -1.182499886
C 0.772399962 0.414199948 -2.143599987
C 0.258199930 -0.486600041 -3.249200106
C 2.129199982 0.780199945 -2.024800062
C 3.197700024 0.307299942 -2.975399971
C 2.531300068 1.572199821 -0.934500039
C 0.151499927 -0.906599998 3.920700073
S -0.451000065 0.652799964 3.554300070
C -1.187900066 0.051299930 2.105999947
N -1.873900175 0.825499952 1.220600009
C -2.815399885 0.206599936 0.297100008
C -3.917700052 1.250799894 0.138999999
C -3.182899952 2.562799931 0.343800008
C -2.202100039 2.223400116 1.463199973
N -1.006000042 -1.240600109 1.925699949
C -0.201200053 -1.786499977 2.922199965
C 0.211099923 -3.221899986 2.790100098
C 1.058300018 -3.441900015 1.532600164
C -0.521131456 -2.215480566 -1.675972939
N -0.534304321 -3.317707300 -0.522982061
Cl 0.597168505 -1.937886953 -2.915564060
C 0.867139757 -2.854330778 0.030192614
O 1.600572824 -2.115115166 -0.163167953
