21

C -3.868299961 -3.257100105 -0.086300001
C -3.683900118 -2.399800062 1.157400012
C -3.900099993 -0.928399980 0.873799980
C -5.165299892 -0.387199998 1.173799992
C -5.447700024 0.955900013 0.937399983
C -4.470699787 1.777799964 0.392300010
C -3.212899923 1.257200003 0.081100002
C -2.910099983 -0.090999998 0.312999994
C 3.015300035 -0.992299974 -1.435899973
C 3.949300051 -0.408600003 -0.357699990
C 4.277800083 1.099400043 -0.520200014
C 3.156800032 2.109299898 -0.220599994
C 3.713999987 3.521100044 -0.083099999
O 2.221999884 2.121200085 -1.297399998
C 3.491499901 -0.754000008 1.061699986
Br 2.276963472 1.120474935 0.034685079
F -0.470066071 -0.109241359 -0.630710065
F 0.111218311 -0.138999104 -0.263981998
O 0.712271512 -0.628023088 0.937663019
C 1.148109674 1.156412005 0.018549703
N 0.204507172 -0.063110486 0.165908530
