21

C -3.868299961 -3.257100105 -0.086300001
C -3.683900118 -2.399800062 1.157400012
C -3.900099993 -0.928400040 0.873799980
C -5.165299892 -0.387199998 1.173799992
C -5.447700024 0.955900013 0.937399983
C -4.470699787 1.777799964 0.392300010
C -3.212899923 1.257200003 0.081100002
C -2.910099983 -0.090999991 0.312999994
C 3.015300035 -0.992300034 -1.435899973
C 3.949300289 -0.408599973 -0.357699990
C 4.277800083 1.099400043 -0.520200014
C 3.156800032 2.109299898 -0.220599994
C 3.714000225 3.521100044 -0.083100006
O 2.221999884 2.121200085 -1.297399998
C 3.491499901 -0.754000008 1.061699986
C 0.510774136 1.569610238 -2.022823334
S -0.989100456 -0.262709260 -0.395114243
N 0.839087725 1.068762302 -0.341968298
N -1.541759610 0.154571563 -2.603376389
S -0.128045529 2.153173923 -0.797454238
I -1.730994105 0.351990521 0.590326071
