27

O 2.660900116 -1.845999956 2.258899927
C 2.702800035 -0.906799972 1.478199959
N 3.769099951 -0.635800004 0.659500003
C 4.968800068 -1.431699991 0.784500003
C 5.974699974 -1.061400056 -0.262400001
C 7.090499878 -0.273299992 0.032600001
C 7.988900185 0.056299999 -0.978299975
C 7.737299919 -0.409299999 -2.258100033
N 6.667699814 -1.165599942 -2.583499908
C 5.813199997 -1.473600030 -1.581500053
N 1.702700019 0.014500000 1.302800059
C -7.985700130 -1.448699951 -2.400399923
C -6.665599823 -1.829900026 -2.603699923
C -5.639599800 -1.032600045 -2.103300095
C -5.965600014 0.128099993 -1.402300000
C -4.880300045 1.047099948 -0.882200003
O -3.831899881 0.285600007 -0.275599986
N -7.253200054 0.519200027 -1.210399985
C -8.226799965 -0.277700007 -1.703699946
C 0.573400021 0.181500003 3.503000021
C 0.435600013 -0.131099999 2.009000063
C -0.617100000 0.757799983 1.366799951
C -0.463800013 2.150500059 1.308699965
C -1.445899963 2.946899891 0.719500005
C -2.594700098 2.365600109 0.177300006
C -2.763400078 0.982299984 0.218700007
C -1.774399996 0.188400000 0.810800016
