22

C -1.367382288 -2.747353077 -2.646135330
C -1.992582321 -1.858052850 -1.615435362
C -3.324682474 -2.038352966 -1.237335324
C -3.919182539 -1.177152872 -0.313635319
C -3.199882507 -0.110752955 0.252064705
C -3.862582445 0.819047034 1.257664680
C -4.190182209 0.083247036 2.557164669
C -5.111582279 1.485947132 0.678364694
C -1.852882385 0.055247039 -0.117435306
O -1.177782297 1.105547071 0.440464705
C 0.209617615 0.893647015 0.697464705
C -1.268282413 -0.796552956 -1.062535286
C 5.293617725 0.646547019 -0.500035286
C 5.241817474 1.160747051 0.781964719
O 6.506317616 1.258747101 1.285464644
C 7.355617523 0.794247031 0.334664702
C 6.660017490 0.425247043 -0.792735338
Cl 4.015452385 1.351027727 1.625437260
S 4.167679310 2.112472296 2.808172464
C 1.429527283 2.418649197 1.598647118
F 2.009835243 1.692811966 1.541765451
N 2.589332819 1.866929650 0.959991574
