22

C -1.367382288 -2.747353077 -2.646135330
C -1.992582321 -1.858052850 -1.615435362
C -3.324682474 -2.038352966 -1.237335324
C -3.919182539 -1.177152872 -0.313635319
C -3.199882507 -0.110752955 0.252064705
C -3.862582445 0.819047034 1.257664680
C -4.190182209 0.083247036 2.557164669
C -5.111582279 1.485947132 0.678364694
C -1.852882385 0.055247039 -0.117435306
O -1.177782297 1.105547071 0.440464705
C 0.209617615 0.893647015 0.697464705
C -1.268282413 -0.796552956 -1.062535286
C 5.293617725 0.646547019 -0.500035286
C 5.241817474 1.160747051 0.781964719
O 6.506317616 1.258747101 1.285464644
C 7.355617523 0.794247031 0.334664702
C 6.660017490 0.425247043 -0.792735338
N 3.603804588 2.178030491 1.603951097
S 3.910793781 1.543056250 2.614037037
C 0.913252771 1.298790216 2.476367950
S 2.081124544 1.693485975 0.670827568
Cl 2.364053488 0.899019003 0.626049876
