22

C -1.367382288 -2.747353077 -2.646135330
C -1.992582321 -1.858052850 -1.615435362
C -3.324682474 -2.038352966 -1.237335324
C -3.919182539 -1.177152872 -0.313635319
C -3.199882507 -0.110752955 0.252064705
C -3.862582445 0.819047034 1.257664680
C -4.190182209 0.083247036 2.557164669
C -5.111582279 1.485947132 0.678364694
C -1.852882385 0.055247039 -0.117435306
O -1.177782297 1.105547071 0.440464705
C 0.209617615 0.893647015 0.697464705
C -1.268282413 -0.796552956 -1.062535286
C 5.293617725 0.646547019 -0.500035286
C 5.241817474 1.160747051 0.781964719
O 6.506317616 1.258747101 1.285464644
C 7.355617523 0.794247031 0.334664702
C 6.660017490 0.425247043 -0.792735338
N 1.737582088 1.350260019 0.749681354
C 1.233274698 0.763942480 0.656137228
Br -0.502388239 0.943116069 -0.878361642
F 1.983822346 1.320138931 0.543926239
Cl 0.548782587 -0.343887329 -0.401067883
