26

C 2.261645079 2.354000092 0.700389981
C 1.802544951 1.518800020 -0.457309991
C 0.461944997 1.158699989 -0.585409999
C 0.045444995 0.347599983 -1.643110037
C 0.960844994 -0.122300029 -2.604209900
C 0.446644992 -1.023100019 -3.709810019
C 2.317645073 0.243699968 -2.485409975
C 3.386145115 -0.229200035 -3.436009884
C 2.719745159 1.035699844 -1.395110011
C 0.339945018 -1.443099976 3.460090160
S -0.262555003 0.116299987 3.093690157
C -0.999454975 -0.485200047 1.645389915
N -1.685455084 0.288999975 0.759989977
C -2.626954794 -0.329900026 -0.163509995
C -3.729254961 0.714299977 -0.321610004
C -2.994454861 2.026299953 -0.116809994
C -2.013654947 1.686900139 1.002589941
N -0.817555070 -1.777100086 1.465089917
C -0.012754992 -2.322999954 2.461590052
C 0.399545014 -3.758399963 2.329490185
C 0.587180257 -2.419350863 -3.233183861
N 1.438655138 -2.540897846 -2.419875145
C 1.435096979 -4.172280312 1.318676114
S 0.797123849 -3.450556040 -0.916979015
N 1.550670266 -3.141924858 0.445869118
O -0.333654940 -3.901726961 -1.055302739
