25

C -7.238021374 -1.987289429 0.355705321
C -7.551321030 -0.669289470 1.005805254
C -6.813721180 -0.701689482 -0.309894711
C -5.348021030 -0.327089459 -0.380494714
C -5.208121300 1.173910499 -0.553794742
C -5.353121281 2.093610525 0.633805275
C -4.007020950 1.906610608 -0.005494714
C 6.332078934 2.157710314 0.662005305
C 5.315878868 1.144010544 0.217905268
C 5.692678928 0.111610539 -0.676494718
C 4.776878834 -0.865089476 -1.084994674
C 3.498978615 -0.787689447 -0.569194734
C 3.126578808 0.207710534 0.314205289
C 4.009178638 1.186110497 0.730705321
C 1.721578836 -0.008189462 0.654505312
O 1.068078756 0.727610528 1.368905187
N 1.330478668 -1.141289473 -0.006394714
C 2.331978798 -1.639689445 -0.793994725
O 2.314978838 -2.581589460 -1.562794805
Cl 0.269021094 -2.218285799 0.546879947
F 0.130624533 0.522581220 -0.133232445
O -2.505078554 0.234737009 -0.809735060
Br -0.245117903 -1.407958508 -1.581584692
S -0.651898026 0.382280827 -1.037844300
S -1.568259597 -0.023096278 0.091948554
