25

C 6.199247360 -1.595185757 0.504800022
N 6.093047619 -0.140585721 0.383499980
C 6.791747570 0.407514274 -0.781199992
C 4.749147415 0.286814272 0.458400011
C 4.035547733 0.089914292 1.641799927
C 2.700047493 0.485214293 1.730400085
C 2.082447529 1.080014229 0.635500014
C 2.863247395 1.265014172 -0.497199982
N 4.166447639 0.888714314 -0.599399984
O -4.489952564 -2.330285549 0.896200001
C -3.776752472 -1.356985807 0.681900024
N -2.925952435 -0.858385742 1.630700111
C -2.164052486 0.267914295 1.530499935
O -1.429152369 0.604214311 2.460700035
N -2.255652428 0.986814260 0.350899994
C -3.004752636 0.501414299 -0.760599971
C -3.001952648 1.131414294 -2.013200045
C -3.764852524 0.624714255 -3.072800159
C -4.540552616 -0.518185735 -2.900400162
C -4.548152447 -1.163885832 -1.668099880
C -3.779152393 -0.656185687 -0.612399995
Cl -1.278156042 -0.418984085 0.480600804
Br 1.775250077 0.897372186 -0.244708955
C 0.447740138 0.498057842 0.692815363
Cl -0.167504445 -0.110144384 0.888494670
