25

C -7.192409515 -1.859823823 0.398228616
C -7.505709648 -0.541823804 1.048328638
C -6.768109322 -0.574223816 -0.267371416
C -5.302409172 -0.199623808 -0.337971419
C -5.162509918 1.301376104 -0.511271417
C -5.307509422 2.221076250 0.676328540
C -3.961409569 2.034076214 0.037028588
C 6.377690315 2.285176039 0.704528570
C 5.361490250 1.271476150 0.260428578
C 5.738290787 0.239076197 -0.633971453
C 4.822490692 -0.737623811 -1.042471409
C 3.544590235 -0.660223782 -0.526671410
C 3.172190428 0.335176200 0.356728584
C 4.054790497 1.313576102 0.773228586
C 1.767190456 0.119276196 0.697028577
O 1.113690376 0.855076194 1.411428571
N 1.376090288 -1.013823867 0.036128588
C 0.029490352 -1.557023883 0.092528589
C -0.896109641 -0.864823818 -0.900471449
C 2.377590418 -1.512223840 -0.751471460
O 2.360590458 -2.454123735 -1.520271420
O -1.269058943 2.324540615 -0.334886044
F -0.857466578 0.131974876 0.375686079
F -1.173393250 -0.627075255 0.796779633
S -1.254176617 -1.125449181 -1.294065952
