26

C -4.117395401 1.414747596 0.625295281
C -3.382595062 2.726747513 0.830095291
C -2.401795387 2.387347698 1.949495196
N -2.073595285 0.989447653 1.706895232
C -3.015095234 0.370547622 0.783395290
C 1.873504758 3.054447651 1.647295237
C 1.414404750 2.219247580 0.489595264
C 0.073804766 1.859147549 0.361495256
C -0.342695236 1.048047662 -0.696204782
C 0.572704792 0.578147650 -1.657304764
C 0.058504760 -0.322652400 -2.762904882
C 0.431604743 -1.801152468 -2.598104715
N -0.052695230 -2.336052418 -1.347704768
C 0.776804745 -2.860852480 -0.390404731
O 1.944304824 -3.175152302 -0.568104744
N 0.111104757 -2.967652321 0.807695270
C 0.858604789 -3.277952433 2.018895388
C 0.011404768 -3.057952404 3.276395321
C 1.929504752 0.944147646 -1.538504839
C 2.998004913 0.471247613 -2.489104748
C 2.331604958 1.736147523 -0.448204726
N -1.357896566 0.333071649 2.487904072
S -0.383901507 0.696544707 3.887884617
C -0.011593705 -0.693076909 4.678805351
Br -1.007118106 -1.062016726 2.249104261
C -0.105207674 -1.495026350 3.120158672
