31

C 6.441690445 -0.984247625 -0.893228531
C 5.313190460 -0.169247627 -0.336228579
C 5.217290401 1.194552422 -0.609328628
C 4.186390400 1.956052303 -0.043628573
C 3.237390518 1.397452354 0.803571403
N 2.275190353 2.191552401 1.317571402
C 1.387590408 1.661852360 2.187771320
C 1.368290305 0.330752373 2.539571285
C 2.332590580 -0.493247628 1.959971428
C 3.324390411 0.022452354 1.094171405
C 4.373890400 -0.746547580 0.523571432
C -1.564109683 0.216552377 -0.487328559
C -2.400709629 1.316152334 -0.353728563
C -3.783009291 1.161152363 -0.491428584
C -4.351509571 -0.087047577 -0.780028582
C -5.745509624 -0.217747629 -0.923328519
C -6.325809956 -1.451047659 -1.218028545
C -5.519809723 -2.571247578 -1.368428588
C -4.133509636 -2.460647583 -1.223428607
C -3.516609430 -1.222947598 -0.929628611
C -2.117309570 -1.044547558 -0.768428564
O 0.201222107 -2.052514315 0.481097192
Cl -0.866541147 -3.178191900 -2.123242140
Br 1.888481140 -0.896558642 0.811599731
N 1.573554158 -1.366321564 -2.237768650
N 2.261259794 -2.417482376 0.616351187
Cl 2.088021994 -4.079546452 -1.405610561
F 2.461606741 -1.624023438 -0.708749115
O -0.715443373 -1.910243273 -1.221868634
N 1.853629470 -2.851667166 1.149963856
Br 1.770959377 -2.224818945 -1.714764476
