31

C 6.441690445 -0.984247625 -0.893228531
C 5.313190460 -0.169247627 -0.336228579
C 5.217290401 1.194552422 -0.609328628
C 4.186390400 1.956052303 -0.043628573
C 3.237390518 1.397452354 0.803571403
N 2.275190353 2.191552401 1.317571402
C 1.387590408 1.661852360 2.187771320
C 1.368290305 0.330752373 2.539571285
C 2.332590580 -0.493247628 1.959971428
C 3.324390411 0.022452354 1.094171405
C 4.373890400 -0.746547580 0.523571432
C -1.564109683 0.216552377 -0.487328559
C -2.400709629 1.316152334 -0.353728563
C -3.783009291 1.161152363 -0.491428584
C -4.351509571 -0.087047577 -0.780028582
C -5.745509624 -0.217747629 -0.923328519
C -6.325809956 -1.451047659 -1.218028545
C -5.519809723 -2.571247578 -1.368428588
C -4.133509636 -2.460647583 -1.223428607
C -3.516609430 -1.222947598 -0.929628611
C -2.117309570 -1.044547558 -0.768428564
S -0.532858372 -1.587605357 0.789942145
F -0.546982765 -2.895078659 -1.677902818
O 2.652392149 -1.142686009 1.430250764
N 1.997281075 -1.781743407 -1.415408373
N 0.707778752 -1.890614629 0.755841017
Cl 2.581558943 -3.688383818 -0.645832539
Br 2.857820988 -0.497914970 -0.548702538
O -0.902677059 -2.157681465 -0.680104852
O 0.963913918 -3.369114161 2.161162376
N 1.356577277 -1.466881752 -1.257530212
