20

Br -5.110599995 4.723100185 1.408400059
C -4.126200676 3.241899967 0.767399967
C -3.422200203 2.439800024 1.661499977
C -2.697600126 1.343199968 1.187099934
C -2.665700197 1.040099978 -0.184900045
C -3.387800217 1.860599995 -1.068099976
C -4.113300323 2.957400084 -0.595400035
C 5.327899933 -1.492799997 -0.970400095
N 4.219399929 -1.146299839 -0.083000064
C 2.920599699 -1.340199947 -0.770200014
C 1.741599917 -0.908400059 0.122899950
O 1.883399725 0.462100029 0.553799927
C 3.125599861 0.633700013 1.250699997
C 4.322400093 0.255400002 0.364599943
F 0.373237193 -1.319655180 -0.428462148
C -1.556822300 -1.926834822 -0.994421482
N -0.174712211 0.252236009 -0.573874831
O -2.357298374 -1.102158070 -0.790233135
F -1.539269090 -0.186375618 -0.593262732
F -0.464488804 -2.345752001 -0.071371585
