26

C 2.073199987 2.890500069 1.161000013
C 1.614099860 2.055299997 0.003300011
C 0.273499876 1.695199966 -0.124799967
C -0.143000126 0.884100080 -1.182500005
C 0.772399902 0.414200068 -2.143599987
C 2.129199743 0.780200064 -2.024800301
C 3.197699785 0.307300061 -2.975399971
C 2.531299829 1.572200060 -0.934499979
C 0.151499867 -0.906599998 3.920700073
S -0.451000124 0.652800083 3.554299831
C -1.187900066 0.051300049 2.105999947
N -1.873900175 0.825500071 1.220600009
C -2.815399885 0.206600055 0.297100008
C -3.917700052 1.250800133 0.138999999
C -3.182900190 2.562799931 0.343800008
C -2.202100039 2.223400116 1.463199973
N -1.006000161 -1.240599871 1.925699949
C -0.201200113 -1.786499977 2.922199726
C 0.211099863 -3.221899986 2.790100098
C 1.058299899 -3.441900015 1.532600045
I -1.622966051 -0.228579938 -2.138652802
I -0.812076688 -0.261852741 -2.618761063
Cl -2.489874125 1.149741292 -0.479878306
Cl -1.067262888 2.437039375 -2.735955238
F -2.510479450 -1.357488036 -0.476146817
C -1.268922329 -0.720326185 -2.014523983
