26

C 2.073199987 2.890500069 1.161000013
C 1.614099860 2.055299997 0.003300011
C 0.273499876 1.695199966 -0.124799967
C -0.143000126 0.884100080 -1.182500005
C 0.772399902 0.414200068 -2.143599987
C 2.129199743 0.780200064 -2.024800301
C 3.197699785 0.307300061 -2.975399971
C 2.531299829 1.572200060 -0.934499979
C 0.151499867 -0.906599998 3.920700073
S -0.451000124 0.652800083 3.554299831
C -1.187900066 0.051300049 2.105999947
N -1.873900175 0.825500071 1.220600009
C -2.815399885 0.206600055 0.297100008
C -3.917700052 1.250800133 0.138999999
C -3.182900190 2.562799931 0.343800008
C -2.202100039 2.223400116 1.463199973
N -1.006000161 -1.240599871 1.925699949
C -0.201200113 -1.786499977 2.922199726
C 0.211099863 -3.221899986 2.790100098
C 1.058299899 -3.441900015 1.532600045
I -1.781969428 -0.221021116 -0.324377537
S -1.894159675 -0.216299951 -2.525107861
Br -2.032608747 1.393559098 -1.012350440
Cl -1.179150581 1.842139721 -2.209952831
F -2.384161472 -1.510625839 -0.512361288
F -1.561589837 0.890934825 -1.376711011
