26

C 2.073199987 2.890500069 1.161000013
C 1.614099860 2.055299997 0.003300011
C 0.273499876 1.695199966 -0.124799967
C -0.143000126 0.884100080 -1.182500005
C 0.772399902 0.414200068 -2.143599987
C 2.129199743 0.780200064 -2.024800301
C 3.197699785 0.307300061 -2.975399971
C 2.531299829 1.572200060 -0.934499979
C 0.151499867 -0.906599998 3.920700073
S -0.451000124 0.652800083 3.554299831
C -1.187900066 0.051300049 2.105999947
N -1.873900175 0.825500071 1.220600009
C -2.815399885 0.206600055 0.297100008
C -3.917700052 1.250800133 0.138999999
C -3.182900190 2.562799931 0.343800008
C -2.202100039 2.223400116 1.463199973
N -1.006000161 -1.240599871 1.925699949
C -0.201200113 -1.786499977 2.922199726
C 0.211099863 -3.221899986 2.790100098
C 1.058299899 -3.441900015 1.532600045
F -0.955220342 -0.181228817 -0.552524805
Br -0.860031188 0.943323672 0.537980974
F -0.687328577 1.153601646 -0.869775653
C 0.492635846 0.705173492 0.750489235
Br -0.447616041 -0.283012152 -0.362766027
Cl -0.205191076 -1.877966166 0.319513798
