26

C 2.073199987 2.890500069 1.161000013
C 1.614099979 2.055299759 0.003300011
C 0.273500085 1.695199847 -0.124800026
C -0.142999947 0.884099901 -1.182500124
C 0.772400141 0.414199889 -2.143599987
C 2.129199982 0.780199885 -2.024800062
C 3.197700024 0.307299882 -2.975399971
C 2.531300068 1.572199821 -0.934499919
C 0.151500046 -0.906600118 3.920700073
S -0.450999945 0.652799904 3.554300070
C -1.187899828 0.051299870 2.105999947
N -1.873899937 0.825499892 1.220600009
C -2.815399885 0.206599891 0.297100008
C -3.917700052 1.250799894 0.138999999
C -3.182899952 2.562799931 0.343800008
C -2.202100039 2.223400116 1.463199973
N -1.006000042 -1.240600109 1.925699949
C -0.201199934 -1.786499977 2.922199965
N -1.293390512 0.269008040 -0.655863464
O -3.670895576 -3.547391415 -3.127025843
C -4.981159687 -3.186428070 -2.910856247
N -2.577360868 -0.269213438 -1.647519350
N -1.401920438 -0.263251185 -1.121672392
N -2.637013197 -0.845387578 -1.045842886
Br -3.568539143 -2.763266563 -2.235773325
F -2.423660517 -2.756340265 -2.002731085
