26

C 2.073199987 2.890500069 1.161000013
C 1.614099979 2.055299759 0.003300011
C 0.273500085 1.695199847 -0.124800026
C -0.142999947 0.884099901 -1.182500124
C 0.772400141 0.414199889 -2.143599987
C 2.129199982 0.780199885 -2.024800062
C 3.197700024 0.307299882 -2.975399971
C 2.531300068 1.572199821 -0.934499919
C 0.151500046 -0.906600118 3.920700073
S -0.450999945 0.652799904 3.554300070
C -1.187899828 0.051299870 2.105999947
N -1.873899937 0.825499892 1.220600009
C -2.815399885 0.206599891 0.297100008
C -3.917700052 1.250799894 0.138999999
C -3.182899952 2.562799931 0.343800008
C -2.202100039 2.223400116 1.463199973
N -1.006000042 -1.240600109 1.925699949
C -0.201199934 -1.786499977 2.922199965
N -1.293542743 1.332894683 -0.480731189
F -1.043483019 -2.120036840 -1.823460817
C -3.437485933 -1.508817911 -1.657439947
I -2.118660450 0.926271021 0.527250051
C -2.424285173 0.993933141 -1.700631857
I -1.571655273 -0.084461033 -1.064222813
O -2.328761339 -0.839949846 -2.246490002
F -1.787901998 -0.577690005 -1.387903214
