26

C 2.073199987 2.890500069 1.161000013
C 1.614099979 2.055299759 0.003300011
C 0.273500085 1.695199847 -0.124800026
C -0.142999947 0.884099901 -1.182500124
C 0.772400141 0.414199889 -2.143599987
C 2.129199982 0.780199885 -2.024800062
C 3.197700024 0.307299882 -2.975399971
C 2.531300068 1.572199821 -0.934499919
C 0.151500046 -0.906600118 3.920700073
S -0.450999945 0.652799904 3.554300070
C -1.187899828 0.051299870 2.105999947
N -1.873899937 0.825499892 1.220600009
C -2.815399885 0.206599891 0.297100008
C -3.917700052 1.250799894 0.138999999
C -3.182899952 2.562799931 0.343800008
C -2.202100039 2.223400116 1.463199973
N -1.006000042 -1.240600109 1.925699949
C -0.201199934 -1.786499977 2.922199965
N -1.402168751 1.287136078 0.696572304
F 0.074428260 -0.003152072 -1.135965824
S -1.585767031 -2.043359280 1.118515015
N -0.082608804 0.512724519 0.887762904
Br -2.734231472 1.926442146 0.688679576
I -0.439662844 -0.315376401 0.349878490
Br -2.128254652 -1.412718296 1.623886347
Cl -0.042918518 -0.776245117 1.264536619
