20

Br -4.968992710 3.718128681 1.148085833
C -3.984593153 2.236928463 0.507085741
C -3.280592918 1.434828520 1.401185751
C -2.555992842 0.338228464 0.926785767
C -2.524092913 0.035128474 -0.445214272
C -3.246192932 0.855628490 -1.328414202
C -3.971692801 1.952428579 -0.855714262
C 5.469507217 -2.497771502 -1.230714321
N 4.361007214 -2.151271343 -0.343314290
C 3.062206984 -2.345171452 -1.030514240
C 1.883207202 -1.913371563 -0.137414277
O 2.025007010 -0.542871475 0.293485701
C 3.267207146 -0.371271491 0.990385711
C 4.464007378 -0.749571502 0.104285717
N 0.719566345 -0.864984810 -0.488118589
Cl -2.045510530 -0.769547522 -2.117884159
Cl 0.021602850 -0.312424272 -1.369500041
N -1.387443304 -0.219550535 -1.181205750
Cl -0.024895849 -0.288829952 -1.965583801
Cl -1.842677832 -2.590139389 -0.379213303
