20

Br -4.968992710 3.718128681 1.148085833
C -3.984593153 2.236928463 0.507085741
C -3.280592918 1.434828520 1.401185751
C -2.555992842 0.338228464 0.926785767
C -2.524092913 0.035128474 -0.445214272
C -3.246192932 0.855628490 -1.328414202
C -3.971692801 1.952428579 -0.855714262
C 5.469507217 -2.497771502 -1.230714321
N 4.361007214 -2.151271343 -0.343314290
C 3.062206984 -2.345171452 -1.030514240
C 1.883207202 -1.913371563 -0.137414277
O 2.025007010 -0.542871475 0.293485701
C 3.267207146 -0.371271491 0.990385711
C 4.464007378 -0.749571502 0.104285717
S -0.893332422 -0.533245087 0.051889792
S -0.299549222 -4.664154530 -0.768101215
N 0.071960904 -2.914183617 -1.567518115
C -0.603491724 -0.934955359 0.283861637
C 0.624282718 -2.169777155 -0.385969013
C 1.111761570 -2.042803288 -1.825716734
