31

C 6.155000210 0.201499999 -1.213199973
C 5.026500225 1.016499996 -0.656200051
C 4.930600166 2.380300045 -0.929300070
C 3.899700165 3.141799927 -0.363600016
C 2.950700283 2.583199978 0.483599961
N 1.988500118 3.377300024 0.997599959
C 1.100900173 2.847599983 1.867799878
C 1.081600070 1.516499996 2.219599724
C 2.045900345 0.692499995 1.639999986
C 3.037700176 1.208199978 0.774199963
C 4.087200165 0.439200044 0.203599989
C -1.850799918 1.402300000 -0.807299972
C -2.687399864 2.501899958 -0.673699975
C -4.069699287 2.346899986 -0.811400056
C -4.638199806 1.098700047 -1.100000024
C -6.032199860 0.967999995 -1.243299961
C -6.612500191 -0.265300035 -1.537999988
C -5.806499958 -1.385499954 -1.688400030
C -4.420199871 -1.274899960 -1.543400049
C -3.803299665 -0.037199974 -1.249600053
C -2.403999805 0.141200066 -1.088400006
I 1.929660320 -2.375575304 -0.077324912
Cl 0.086432934 -2.068702698 0.470199049
N -2.167660236 -1.526713848 -1.058803082
F 0.303464055 0.186461806 -2.400197506
O 3.535341740 -1.174290180 0.125743330
Cl 0.478743374 -2.098973274 -2.205307484
F 0.256206691 -1.225853443 -0.489297450
C 2.528305769 -1.614914417 -1.003567934
O 3.450196028 -1.884884596 -1.457531095
C 3.180445194 -0.638311982 0.439285278
