31

C 6.155000210 0.201499999 -1.213199973
C 5.026500225 1.016499996 -0.656200051
C 4.930600166 2.380300045 -0.929300070
C 3.899700165 3.141799927 -0.363600016
C 2.950700283 2.583199978 0.483599961
N 1.988500118 3.377300024 0.997599959
C 1.100900173 2.847599983 1.867799878
C 1.081600070 1.516499996 2.219599724
C 2.045900345 0.692499995 1.639999986
C 3.037700176 1.208199978 0.774199963
C 4.087200165 0.439200044 0.203599989
C -1.850799918 1.402300000 -0.807299972
C -2.687399864 2.501899958 -0.673699975
C -4.069699287 2.346899986 -0.811400056
C -4.638199806 1.098700047 -1.100000024
C -6.032199860 0.967999995 -1.243299961
C -6.612500191 -0.265300035 -1.537999988
C -5.806499958 -1.385499954 -1.688400030
C -4.420199871 -1.274899960 -1.543400049
C -3.803299665 -0.037199974 -1.249600053
C -2.403999805 0.141200066 -1.088400006
N 2.611987829 -0.905006886 -1.227856278
Cl 1.267707109 -1.570675135 -0.435949028
N -2.184300423 -1.291292906 0.888879776
O 0.726878166 -0.043639421 -1.270812273
N 1.823109627 -0.640198708 -0.260862887
S 1.001276851 -0.697991133 -1.839345098
F -0.696260154 -1.269329786 -0.771228671
O 1.945471525 -1.790105581 -1.621145606
F 2.302201033 -0.409720063 -0.900709927
O 2.109745026 0.903203428 0.932195425
