31

C 6.155000210 0.201499999 -1.213199973
C 5.026500225 1.016499996 -0.656200051
C 4.930600166 2.380300045 -0.929300070
C 3.899700165 3.141799927 -0.363600016
C 2.950700283 2.583199978 0.483599961
N 1.988500118 3.377300024 0.997599959
C 1.100900173 2.847599983 1.867799878
C 1.081600070 1.516499996 2.219599724
C 2.045900345 0.692499995 1.639999986
C 3.037700176 1.208199978 0.774199963
C 4.087200165 0.439200044 0.203599989
C -1.850799918 1.402300000 -0.807299972
C -2.687399864 2.501899958 -0.673699975
C -4.069699287 2.346899986 -0.811400056
C -4.638199806 1.098700047 -1.100000024
C -6.032199860 0.967999995 -1.243299961
C -6.612500191 -0.265300035 -1.537999988
C -5.806499958 -1.385499954 -1.688400030
C -4.420199871 -1.274899960 -1.543400049
C -3.803299665 -0.037199974 -1.249600053
C -2.403999805 0.141200066 -1.088400006
N 2.369473457 -1.481027126 -1.080144167
Br 0.582759738 -0.707836509 -0.335523725
Cl -2.887196064 -0.728979588 1.074539423
O 0.741578579 -0.270766020 -1.872194409
Cl 1.391149163 0.434740186 -0.264944881
O 0.326906979 -0.216599345 -1.679739952
Cl -1.444814086 -0.925409794 -1.118086100
N 1.230037093 -0.460183620 -2.224050045
N 1.549290538 0.639570773 -1.780770183
O 0.972093225 1.207592130 1.754267097
