25

C -7.004225254 -1.933364987 0.433410048
C -7.317524910 -0.615365028 1.083510041
C -6.579925060 -0.647765040 -0.232189983
C -5.114224911 -0.273165017 -0.302789986
C -4.442124844 -1.024564981 -1.476390004
C -4.974325180 1.227834940 -0.476090014
C -5.119325161 2.147535086 0.711510003
C -3.773224831 1.960535049 0.072210014
C 6.565875053 2.211634874 0.739710033
C 5.549674988 1.197934985 0.295610011
C 5.926475048 0.165535003 -0.598789990
C 5.010674953 -0.811165035 -1.007290006
C 3.732774734 -0.733765006 -0.491490006
C 3.360374928 0.261634976 0.391910017
C 4.242974758 1.240034938 0.808410048
C 1.955375075 0.045734994 0.732210040
O 1.301874995 0.781534970 1.446609974
N 1.564274907 -1.087365031 0.071310014
C 2.565774918 -1.585765004 -0.716289997
O 2.548775196 -2.527664900 -1.485090017
Br -0.126624718 -0.882317007 -0.257789373
N -1.371663451 -0.172715396 1.520976663
Br 1.238860130 -0.688936949 0.005122319
C 0.024231672 1.205498695 -1.501852036
C -0.627377510 0.755483747 0.774048328
