25

C -6.981941223 -1.816595435 0.466936409
C -7.295240879 -0.498595476 1.117036343
C -6.557641029 -0.530995488 -0.198663607
C -5.091940880 -0.156395465 -0.269263625
C -4.419840813 -0.907795489 -1.442863703
C -4.952041149 1.344604492 -0.442563623
C -5.097041130 2.264304638 0.745036364
C -3.750940800 2.077304602 0.105736390
C 6.588159084 2.328404427 0.773236394
C 5.571959019 1.314704537 0.329136372
C 5.948759079 0.282304525 -0.565263629
C 5.032958984 -0.694395483 -0.973763585
C 3.755058765 -0.616995454 -0.457963616
C 3.382658958 0.378404528 0.425436378
C 4.265258789 1.356804490 0.841936409
C 1.977659106 0.162504539 0.765736401
O 1.324159026 0.898304522 1.480136275
N 1.586558938 -0.970595479 0.104836389
C 0.239959002 -1.513795495 0.161236390
C -0.685640991 -0.821595490 -0.831763625
C 2.588058949 -1.468995452 -0.682763636
O 2.571059227 -2.410895348 -1.451563716
F -1.556242108 -1.801542163 -0.719251156
C -2.372419357 0.462433010 1.720513463
O -1.846068025 -0.137656137 -1.112224817
