32

C -4.172920704 1.384037495 -2.041083336
C -4.861620903 0.428437501 -1.110883355
N -6.030820847 0.862937570 -0.563283324
C -6.732420921 0.019237518 0.252316684
C -8.062120438 0.482137531 0.841416717
F -8.174120903 1.834937453 0.962716699
F -8.275520325 -0.014362484 2.097316504
F -9.134520531 0.076837510 0.103016704
C -6.281320572 -1.273362517 0.528316736
C -5.075520515 -1.703862429 -0.021383315
C -4.345220566 -0.836262465 -0.834783316
N 8.278179169 1.015037537 -1.974683285
S 8.228178978 0.630537510 -0.341283292
O 9.147979736 -0.469862491 -0.167083308
O 8.371279716 1.879637599 0.368516713
C 6.572379112 0.039337516 -0.155383304
C 6.311679363 -1.329762459 -0.214583308
C 5.002879143 -1.789162517 -0.041183293
C 3.952079058 -0.890962481 0.198416680
N 2.662379026 -1.441162467 0.350416690
C 1.479479194 -0.765762508 0.609016657
O 1.366579175 0.440837532 0.793316722
C 4.232779503 0.476437479 0.265916675
C 5.540279388 0.944137573 0.094916701
C -1.838309526 -2.363820076 1.707012177
C -0.339488775 -2.007363558 1.892911434
N -4.636649132 -3.024897337 0.260448366
C -3.370806217 -3.630294323 0.325537682
C 0.150444776 -2.664865017 -0.451724261
C -1.137906909 -3.485116005 -0.354511976
N -2.193787098 -2.728026628 0.318966657
C 0.171315968 -1.511726022 0.547890425
