32

C -4.172920704 1.384037495 -2.041083336
C -4.861620903 0.428437501 -1.110883355
N -6.030820847 0.862937570 -0.563283324
C -6.732420921 0.019237518 0.252316684
C -8.062120438 0.482137531 0.841416717
F -8.174120903 1.834937453 0.962716699
F -8.275520325 -0.014362484 2.097316504
F -9.134520531 0.076837510 0.103016704
C -6.281320572 -1.273362517 0.528316736
C -5.075520515 -1.703862429 -0.021383315
C -4.345220566 -0.836262465 -0.834783316
N 8.278179169 1.015037537 -1.974683285
S 8.228178978 0.630537510 -0.341283292
O 9.147979736 -0.469862491 -0.167083308
O 8.371279716 1.879637599 0.368516713
C 6.572379112 0.039337516 -0.155383304
C 6.311679363 -1.329762459 -0.214583308
C 5.002879143 -1.789162517 -0.041183293
C 3.952079058 -0.890962481 0.198416680
N 2.662379026 -1.441162467 0.350416690
C 1.479479194 -0.765762508 0.609016657
O 1.366579175 0.440837532 0.793316722
C 4.232779503 0.476437479 0.265916675
C 5.540279388 0.944137573 0.094916701
Cl -0.553302109 1.235463858 0.774613738
C 0.199632660 0.044156283 -1.185245752
Cl -2.049955845 -0.956454873 0.054246239
N -0.440984040 -0.531012058 0.214076608
F -0.475996703 0.370938599 -0.354784340
Cl -1.043405056 -1.094029784 -0.944445550
F 0.566660702 -0.416840136 -1.102378845
O 1.423719168 -0.001489796 0.176974580
