25

C 5.585599899 -1.859099984 0.641600013
N 5.479399681 -0.404500037 0.520299971
C 6.178099632 0.143599987 -0.644400001
C 4.135499954 0.022899970 0.595200002
C 3.421899796 -0.174000025 1.778599977
C 2.086399794 0.221299976 1.867200136
C 1.468799591 0.816100001 0.772300005
C 2.249599695 1.001099944 -0.360400021
N 3.552799702 0.624799967 -0.462599993
O -5.103600502 -2.594200134 1.032999992
C -4.390399933 -1.620900035 0.818700016
N -3.539600134 -1.122300029 1.767500162
C -2.777700186 0.003999963 1.667299986
O -2.042800188 0.340299964 2.597500086
N -2.869300127 0.722899914 0.487699986
C -2.125100136 1.979599833 0.412200004
C -3.618400335 0.237499952 -0.623799980
C -3.615600348 0.867499948 -1.876399994
C -4.378499985 0.360799968 -2.936000109
C -5.154200554 -0.782100081 -2.763600111
C -5.161800385 -1.427800059 -1.531299829
C -4.392800331 -0.920099974 -0.475600004
F -1.554938793 1.818292022 -0.770028591
Cl 0.649235845 0.813340485 1.941865206
I 1.096371889 1.833760858 -1.952152729
