25

C -6.020100117 -1.869099975 0.518100023
C -6.333400249 -0.551100016 1.168200016
C -5.595799923 -0.583500028 -0.147499979
C -4.130099773 -0.208900005 -0.218099982
C -3.990200520 1.292099953 -0.391399980
C -4.135200024 2.211800098 0.796199977
C -2.789100170 2.024800062 0.156900018
C 7.549999714 2.275899887 0.824400008
C 6.533799648 1.262199998 0.380299985
C 6.910600185 0.229800001 -0.514100015
C 5.994800091 -0.746900022 -0.922599971
C 4.716899872 -0.669499993 -0.406799972
C 4.344499588 0.325899988 0.476599991
C 5.227099895 1.304299951 0.893100023
C 2.939499855 0.109999999 0.816900015
O 2.285999775 0.845799983 1.531300068
N 2.548399687 -1.023100019 0.156000018
C 1.201799750 -1.566300035 0.212400019
C 3.549899817 -1.521499991 -0.631600022
O 3.532899857 -2.463399887 -1.400399923
F -0.286682367 -0.666444123 -1.775619984
C 0.157773972 -0.485717714 0.140683413
N -1.638192415 1.048817039 1.547526836
C -0.704629779 -0.790326118 0.062750168
O -1.157921553 1.214116573 1.528573751
