26

C 2.073199987 2.890500069 1.161000013
C 1.614099979 2.055299759 0.003300011
C 0.273500085 1.695199847 -0.124800026
C -0.142999947 0.884099901 -1.182500124
C 0.772400141 0.414199889 -2.143599987
C 2.129199982 0.780199885 -2.024800062
C 3.197700024 0.307299882 -2.975399971
C 2.531300068 1.572199821 -0.934499919
C 0.151500046 -0.906600118 3.920700073
S -0.450999945 0.652799904 3.554300070
C -1.187899828 0.051299870 2.105999947
N -1.873899937 0.825499892 1.220600009
C -2.815399885 0.206599891 0.297100008
C -3.917700052 1.250799894 0.138999999
C -3.182899952 2.562799931 0.343800008
C -2.202100039 2.223400116 1.463199973
N -1.006000042 -1.240600109 1.925699949
C -0.201199934 -1.786499977 2.922199965
N -0.677913547 -1.454126120 -1.777453423
O -0.154963493 -0.272744298 -1.330696583
Br 1.334552884 -1.154629111 -0.971486866
F 0.698670447 -1.707299471 0.838260889
F 0.006852776 -2.192983866 1.168756008
O 1.393041968 -2.550405979 -0.843758047
N -1.294283748 -1.674152613 0.670865953
Br 0.018832445 -2.165283442 -2.606825113
