27

O -0.064138100 -0.436185718 -0.157338142
C 1.075961947 -0.046685711 0.078461826
N 1.550061941 0.429314286 1.296661854
C 2.066261768 -0.028885707 -1.038038135
C 1.592961907 0.093714289 -2.351037979
C 2.494461775 0.105814286 -3.411037922
F 2.037361860 0.232814282 -4.663137913
C 3.859361649 -0.010485709 -3.192738056
C 4.318461895 -0.150085717 -1.890738130
F 5.632761955 -0.276085705 -1.666338086
C 3.440861940 -0.165185720 -0.809638143
O -1.768238068 2.499614239 0.647361875
C -2.278438091 1.383714318 0.698361874
C -3.466038227 1.041714311 1.599261761
N -3.460038185 -0.367685735 2.086061954
S -2.891238213 -0.621685684 3.671161652
O -2.763938189 -2.044585705 3.899261951
O -3.707338095 0.204314291 4.538661957
C -3.143838167 -1.399085760 1.050361872
C -2.697638273 -0.793385684 -0.287838101
N -1.827638030 0.349014282 -0.097738147
C 0.823633313 0.383930504 2.534385920
C -0.445656240 -0.150065660 2.600015163
C 0.659506261 0.907270551 4.889945030
C -0.671287298 0.482933104 4.895895004
C -1.230027318 -0.028903008 3.728548288
C 1.405625582 0.865221262 3.713454723
