27

O -0.064138100 -0.436185718 -0.157338142
C 1.075961947 -0.046685711 0.078461826
N 1.550061941 0.429314286 1.296661854
C 2.066261768 -0.028885707 -1.038038135
C 1.592961907 0.093714289 -2.351037979
C 2.494461775 0.105814286 -3.411037922
F 2.037361860 0.232814282 -4.663137913
C 3.859361649 -0.010485709 -3.192738056
C 4.318461895 -0.150085717 -1.890738130
F 5.632761955 -0.276085705 -1.666338086
C 3.440861940 -0.165185720 -0.809638143
O -1.768238068 2.499614239 0.647361875
C -2.278438091 1.383714318 0.698361874
C -3.466038227 1.041714311 1.599261761
N -3.460038185 -0.367685735 2.086061954
S -2.891238213 -0.621685684 3.671161652
O -2.763938189 -2.044585705 3.899261951
O -3.707338095 0.204314291 4.538661957
C -3.143838167 -1.399085760 1.050361872
C -2.697638273 -0.793385684 -0.287838101
N -1.827638030 0.349014282 -0.097738147
O 1.994451642 -0.614983737 3.049870729
Br -0.039801896 -0.735900164 1.135621190
F 0.653941512 0.412279934 2.876943111
S -0.418376595 -0.159439981 3.331330538
Cl -0.821786880 -0.007690221 1.081252575
O 1.166167617 0.903094172 3.325271130
