31

C 6.155000210 0.201499999 -1.213199973
C 5.026500225 1.016499996 -0.656199992
C 4.930600166 2.380300045 -0.929300010
C 3.899699688 3.141799927 -0.363599986
C 2.950699806 2.583199978 0.483599961
N 1.988499880 3.377300024 0.997600019
C 1.100899816 2.847599983 1.867799997
C 1.081599712 1.516499996 2.219599962
C 2.045899868 0.692499995 1.639999866
C 3.037699699 1.208199978 0.774200022
C 4.087200165 0.439199984 0.203599989
O -1.396700263 -1.652600050 -2.233900070
C -1.479500294 -1.020400047 -1.188300014
C -2.404000282 0.141200006 -1.088400006
C -1.850800276 1.402300000 -0.807299972
C -2.687400341 2.501899958 -0.673699975
C -4.069700241 2.346899986 -0.811399996
C -4.638199806 1.098700047 -1.100000024
C -6.032199860 0.967999995 -1.243299961
C -6.612500191 -0.265299976 -1.538000107
C -5.806499958 -1.385499954 -1.688400030
C -4.420199871 -1.274899960 -1.543400049
C -3.803300142 -0.037200034 -1.249600053
O -0.216912240 0.873661816 -0.242711306
S -2.198819160 0.820708394 -0.862302721
I -1.393125296 -0.331291854 0.837712824
Cl -0.571155071 0.363166869 1.737619400
C -0.470010459 0.513600647 0.270654261
S -0.977743030 -0.335815489 -0.606294215
F -1.482750535 0.459829271 -0.670448065
F 1.518928528 0.379138291 -1.807284355
