25

C -6.020100117 -1.869099975 0.518100023
C -6.333399773 -0.551100016 1.168200016
C -5.595799923 -0.583500028 -0.147499993
C -4.130099773 -0.208900005 -0.218099996
C -3.457999945 -0.960300028 -1.391700029
C -3.990200043 1.292099953 -0.391400009
C -4.135200024 2.211800098 0.796199977
C -2.789099932 2.024800062 0.156900004
C 7.550000191 2.275899887 0.824400008
C 6.533800125 1.262199998 0.380299985
C 6.910600185 0.229800001 -0.514100015
C 5.994800091 -0.746900022 -0.922599971
C 4.716899872 -0.669499993 -0.406800002
C 4.344500065 0.325899988 0.476599991
C 5.227099895 1.304299951 0.893100023
C 2.939500093 0.109999999 0.816900015
O 2.286000013 0.845799983 1.531299949
N 2.548399925 -1.023100019 0.156000003
C 3.549900055 -1.521499991 -0.631600022
O 3.532900095 -2.463399887 -1.400400043
F -0.041382242 1.497935057 0.898764491
O 0.495394021 0.734140694 0.675063133
F 1.115408182 -0.237300158 1.074744701
F 0.891597033 0.621512830 0.592482746
F -0.751510620 1.416722417 1.827051401
