26

C 2.202276230 2.543447733 0.649342835
C 1.743176222 1.708247662 -0.508357167
C 0.402576178 1.348147631 -0.636457205
C -0.013923824 0.537047625 -1.694157124
C 0.901476204 0.067147613 -2.655257225
C 0.387276173 -0.833652377 -3.760857344
C 2.258276224 0.433147609 -2.536457300
C 3.326776266 -0.039752394 -3.487057209
C 2.660376310 1.225147486 -1.446157217
C 0.280576169 -1.253652334 3.409042835
S -0.321923822 0.305747628 3.042642832
C -1.058823824 -0.295752406 1.594342709
N -1.744823933 0.478447616 0.708942831
C -2.686323643 -0.140452400 -0.214557171
C -3.788623810 0.903747618 -0.372657180
C -3.053823709 2.215747595 -0.167857170
C -2.073023796 1.876347780 0.951542795
N -0.876923859 -1.587652445 1.414042711
C -0.072123811 -2.133552313 2.410542727
C 0.340176165 -3.568952322 2.278442860
C 1.187376261 -3.788952351 1.020942926
N -1.794628859 0.294265628 -3.742646456
C -1.787912726 0.277169406 -1.910637736
Br -1.168141603 1.929486752 -2.884667635
S -0.927239120 0.296979100 -2.367494822
N -3.307926416 -1.516426563 -1.114062071
