25

C 5.585599899 -1.859099984 0.641600013
N 5.479400158 -0.404499948 0.520299971
C 6.178100109 0.143600047 -0.644400001
C 4.135499954 0.022900045 0.595200002
C 3.421900272 -0.173999935 1.778599977
C 2.086400032 0.221300066 1.867200136
C 1.468800068 0.816100001 0.772300005
C 2.249599934 1.001099944 -0.360399991
N 3.552800179 0.624800086 -0.462599993
O -5.103600025 -2.594199657 1.032999992
C -4.390399933 -1.620900035 0.818700016
N -3.539599895 -1.122299910 1.767500162
C -2.777699947 0.004000068 1.667299986
O -2.042799950 0.340300083 2.597500086
N -2.869299889 0.722900033 0.487699986
C -3.618400097 0.237500072 -0.623799980
C -3.615600109 0.867500067 -1.876399994
C -4.378499985 0.360800028 -2.936000109
C -5.154200077 -0.782099962 -2.763600111
C -5.161799908 -1.427800059 -1.531299829
C -4.392799854 -0.920099914 -0.475600004
O 0.128680408 1.211249352 0.913725495
C -2.091073513 1.973343968 0.358084172
C -0.722214162 1.597664356 -0.106855407
O -0.431483477 1.526439428 -1.328655720
