27

C 0.209738106 0.738223791 3.894280910
C 0.071938097 0.425623775 2.400280952
N 1.339038134 0.571223795 1.694081068
C 2.339138031 -0.350076199 1.869480848
O 2.297238111 -1.289276123 2.650180817
N 3.405437946 -0.079076231 1.050781012
C 4.605138302 -0.874976218 1.175781012
C 5.611038208 -0.504676282 0.128880948
C 6.726838112 0.283423781 0.423880935
C 7.625238419 0.613023758 -0.587019026
C 7.373638153 0.147423774 -1.866819143
N 6.304038048 -0.608876169 -2.192219019
C 5.449538231 -0.916876256 -1.190219164
C -8.349362373 -0.891976178 -2.009119034
C -7.029261589 -1.273176193 -2.212419033
C -6.003261566 -0.475876272 -1.712019205
C -6.329261780 0.684823751 -1.011018991
C -5.243961811 1.603823662 -0.490919054
O -4.195561886 0.842323780 0.115680963
N -7.616861820 1.075923800 -0.819119036
C -8.590461731 0.279023767 -1.312418938
F -1.456799507 1.338626623 2.048903942
N -3.255664825 1.356658220 0.956952572
F -2.022894621 0.181334898 1.445346713
F -2.184927702 3.050949574 1.298855901
O -0.570742428 2.278773308 1.557959676
C -3.313103914 2.586588860 0.960460782
