26

C 2.285152674 2.300152779 0.505136847
C 1.826052666 1.464952588 -0.652563155
C 0.485452652 1.104852557 -0.780663133
C 0.068952635 0.293752611 -1.838363171
C 0.984352648 -0.176147401 -2.799463272
C 2.341152668 0.189852595 -2.680663109
C 3.409652710 -0.283047408 -3.631263256
C 2.743252754 0.981852531 -1.590363145
C 0.363452643 -1.496947408 3.264836788
S -0.239047363 0.062452614 2.898437023
C -0.975947320 -0.539047420 1.450136781
N -1.661947370 0.235152602 0.564736843
C -2.603447199 -0.383747399 -0.358763158
C -3.705747366 0.660452604 -0.516863167
C -2.970947266 1.972452521 -0.312063158
C -1.990147352 1.633052707 0.807336807
N -0.794047415 -1.830947399 1.269836783
C 0.010752648 -2.376847267 2.266336918
C 0.423052639 -3.812247276 2.134236813
F 1.015187025 -3.749643326 -0.274964154
Br 1.870970249 -3.061928988 -0.088220857
C 0.362882465 -0.854869783 -3.782196045
C -0.171791956 -3.004913330 -1.962414861
N -0.027450686 -4.353448391 0.816290855
C 0.737447619 -2.498156071 -3.445126534
C 0.173469692 -4.280891895 -1.765829444
