26

C 2.285152674 2.300152779 0.505136847
C 1.826052666 1.464952588 -0.652563155
C 0.485452652 1.104852557 -0.780663133
C 0.068952635 0.293752611 -1.838363171
C 0.984352648 -0.176147401 -2.799463272
C 2.341152668 0.189852595 -2.680663109
C 3.409652710 -0.283047408 -3.631263256
C 2.743252754 0.981852531 -1.590363145
C 0.363452643 -1.496947408 3.264836788
S -0.239047363 0.062452614 2.898437023
C -0.975947320 -0.539047420 1.450136781
N -1.661947370 0.235152602 0.564736843
C -2.603447199 -0.383747399 -0.358763158
C -3.705747366 0.660452604 -0.516863167
C -2.970947266 1.972452521 -0.312063158
C -1.990147352 1.633052707 0.807336807
N -0.794047415 -1.830947399 1.269836783
C 0.010752648 -2.376847267 2.266336918
C 0.423052639 -3.812247276 2.134236813
Br -1.478478193 -0.090036750 -3.682778835
N -2.666980505 -0.201671362 -3.602169991
S 0.234732524 -1.225364804 -4.667790890
F -0.767205119 -0.662559688 -1.272629261
Br -0.928936124 -0.024574058 -2.625010967
C 0.313599765 -0.435715705 -4.724175453
Cl -2.610039234 -1.894293666 -1.062310576
