21

C -3.868299961 -3.257100105 -0.086300001
C -3.683900118 -2.399800062 1.157400012
C -3.900099993 -0.928399980 0.873799980
C -5.165299892 -0.387199998 1.173799992
C -5.447700024 0.955900013 0.937399983
C -4.470699787 1.777799964 0.392300010
C -3.212899923 1.257200003 0.081100002
C -2.910099983 -0.090999998 0.312999994
C 3.015300035 -0.992299974 -1.435899973
C 3.949300051 -0.408600003 -0.357699990
C 4.277800083 1.099400043 -0.520200014
C 3.156800032 2.109299898 -0.220599994
C 3.713999987 3.521100044 -0.083099999
O 2.221999884 2.121200085 -1.297399998
C 3.491499901 -0.754000008 1.061699986
F -0.588976145 -1.072289467 0.095395759
F -0.334691912 -0.525797427 -0.877625525
I 0.393831372 0.163959369 -0.197682247
F 1.010413647 -1.348244786 -0.349772245
Cl -0.644267976 0.446783423 -0.537109733
Cl 1.242318511 -0.814595342 0.250150412
