31

C 6.441690445 -0.984247625 -0.893228531
C 5.313190460 -0.169247627 -0.336228579
C 5.217290401 1.194552422 -0.609328628
C 4.186390400 1.956052303 -0.043628573
C 3.237390518 1.397452354 0.803571403
N 2.275190353 2.191552401 1.317571402
C 1.387590408 1.661852360 2.187771320
C 1.368290305 0.330752373 2.539571285
C 2.332590580 -0.493247628 1.959971428
C 3.324390411 0.022452354 1.094171405
C 4.373890400 -0.746547580 0.523571432
C -1.564109683 0.216552377 -0.487328559
C -2.400709629 1.316152334 -0.353728563
C -3.783009291 1.161152363 -0.491428584
C -4.351509571 -0.087047577 -0.780028582
C -5.745509624 -0.217747629 -0.923328519
C -6.325809956 -1.451047659 -1.218028545
C -5.519809723 -2.571247578 -1.368428588
C -4.133509636 -2.460647583 -1.223428607
C -3.516609430 -1.222947598 -0.929628611
C -2.117309570 -1.044547558 -0.768428564
N 0.826290071 -1.451001167 -0.516774118
Cl 0.321979225 -1.066093564 -0.160111070
F 0.216892645 -1.076704502 -0.754880190
N 1.533387780 -0.229797959 -0.725236177
S 0.647565901 0.904889107 -0.877788961
O 0.668299079 -0.548977017 -0.076022059
Cl -1.581993222 0.171138078 -1.018182635
F 1.093402982 -1.027763128 -1.361307025
S 0.224925667 2.451932907 0.454854667
Br 0.570787370 1.774422407 0.546667099
