27

O 2.312063217 -1.228021145 2.981473684
C 2.353963137 -0.288821101 2.200773716
N 3.420263052 -0.017821133 1.382073641
C 4.619963169 -0.813721120 1.507073641
C 5.625863075 -0.443421185 0.460173696
C 6.741662979 0.344678879 0.755173683
C 7.640063286 0.674278855 -0.255726278
C 7.388463020 0.208678871 -1.535526276
N 6.318862915 -0.547621071 -1.860926151
C 5.464363098 -0.855621159 -0.858926356
N 1.353863120 0.632478893 2.025373697
C -8.334536552 -0.830721080 -1.677826166
C -7.014436722 -1.211921215 -1.881126165
C -5.988436699 -0.414621174 -1.380726337
C -6.314436913 0.746078849 -0.679726303
C -5.229136944 1.665078878 -0.159626305
O -4.180736542 0.903578877 0.446973711
N -7.602036953 1.137178898 -0.487826288
C -8.575636864 0.340278864 -0.981126249
C -0.786637664 1.695160031 2.885206223
N -2.136666536 1.430478334 3.362844467
N -2.992026806 0.793738842 2.450606108
O -0.131559506 3.356784344 1.728655100
C -1.005849957 2.489834785 1.665241718
C -2.098559618 2.233699083 0.680069566
C 0.085730985 0.438998818 2.737924576
C -3.383888006 1.683340549 1.337961912
