27

O 2.312063217 -1.228021145 2.981473684
C 2.353963137 -0.288821101 2.200773716
N 3.420263052 -0.017821133 1.382073641
C 4.619963169 -0.813721120 1.507073641
C 5.625863075 -0.443421185 0.460173696
C 6.741662979 0.344678879 0.755173683
C 7.640063286 0.674278855 -0.255726278
C 7.388463020 0.208678871 -1.535526276
N 6.318862915 -0.547621071 -1.860926151
C 5.464363098 -0.855621159 -0.858926356
N 1.353863120 0.632478893 2.025373697
C -8.334536552 -0.830721080 -1.677826166
C -7.014436722 -1.211921215 -1.881126165
C -5.988436699 -0.414621174 -1.380726337
C -6.314436913 0.746078849 -0.679726303
C -5.229136944 1.665078878 -0.159626305
O -4.180736542 0.903578877 0.446973711
N -7.602036953 1.137178898 -0.487826288
C -8.575636864 0.340278864 -0.981126249
N -0.435776472 1.816980839 1.606040239
S -2.478666782 1.239507079 3.344657183
C -2.589862108 0.822413981 2.659291506
F -0.203050449 3.015592813 2.047158957
Cl -1.377521634 1.890107751 1.991990924
O -1.040445328 1.649780750 0.662813246
O 0.714376926 -0.349729866 1.006961703
S -2.466419220 1.205613017 1.185674429
