26

C 2.073199987 2.890500069 1.161000013
C 1.614100099 2.055299759 0.003300011
C 0.273500085 1.695199847 -0.124799967
C -0.142999917 0.884099901 -1.182500005
C 0.772400141 0.414199889 -2.143599987
C 0.258200079 -0.486600161 -3.249199867
C 0.631300092 -1.965100288 -3.084399700
C 2.129199982 0.780199885 -2.024799824
C 3.197700024 0.307299882 -2.975399971
C 2.531300068 1.572199821 -0.934499979
C 0.151500106 -0.906600118 3.920700073
S -0.450999916 0.652799904 3.554300308
C -1.187899828 0.051299870 2.105999947
N -1.873899937 0.825499892 1.220600009
C -2.815399885 0.206599891 0.297100008
C -3.917700052 1.250799894 0.139000013
C -3.182899952 2.562799931 0.343800008
C -2.202100039 2.223400116 1.463199973
N -1.005999923 -1.240600109 1.925699949
C -0.201199904 -1.786499977 2.922200203
F 0.795960248 -3.043875456 2.788680077
Cl 0.159520447 -2.873187065 0.677840352
Cl 1.571399689 -3.153538465 1.728692174
O 2.148365021 -1.758795023 -0.878531456
Cl 0.201744050 -2.131348372 -1.395258546
Cl 1.224575758 -2.167104483 -0.510668695
