27

C 0.573400021 0.181500003 3.503000021
C 0.435600013 -0.131099999 2.009000063
N 1.702700019 0.014500000 1.302800059
C 2.702800035 -0.906799972 1.478199959
O 2.660900116 -1.845999956 2.258899927
N 3.769099951 -0.635800004 0.659500003
C 4.968800068 -1.431699991 0.784500003
C 5.974699974 -1.061400056 -0.262400001
C 7.090499878 -0.273299992 0.032600001
C 7.988900185 0.056299999 -0.978299975
C 7.737299919 -0.409299999 -2.258100033
N 6.667699814 -1.165599942 -2.583499908
C 5.813199997 -1.473600030 -1.581500053
C -7.985700130 -1.448699951 -2.400399923
C -6.665599823 -1.829900026 -2.603699923
C -5.639599800 -1.032600045 -2.103300095
C -5.965600014 0.128099993 -1.402300000
C -4.880300045 1.047099948 -0.882200003
O -3.831899881 0.285600007 -0.275599986
N -7.253200054 0.519200027 -1.210399985
C -8.226799965 -0.277700007 -1.703699946
O -0.427258611 1.104369283 -1.102798700
O 0.554326653 -1.284655452 -0.381578326
I 0.513945758 0.100190081 0.258626044
S 0.361680716 2.278669596 0.023345094
N 1.582757711 -1.159179211 0.948392332
C -0.457347661 0.760547698 -0.578683019
