27

C 0.573400021 0.181500018 3.503000021
C 0.435600013 -0.131099999 2.009000063
N 1.702700019 0.014500022 1.302800179
C 2.702800035 -0.906799972 1.478199959
O 2.660900116 -1.845999956 2.258899927
N 3.769099951 -0.635800004 0.659500122
C 4.968800068 -1.431699991 0.784500122
C 5.974699974 -1.061400056 -0.262399942
C 7.090499878 -0.273299992 0.032600045
C 7.988900185 0.056299984 -0.978299916
C 7.737299919 -0.409299999 -2.258100033
N 6.667699814 -1.165599942 -2.583499908
C 5.813199997 -1.473600030 -1.581500053
C -7.985700607 -1.448699951 -2.400399923
C -6.665599823 -1.829900026 -2.603699923
C -5.639599800 -1.032600045 -2.103300095
C -5.965600014 0.128099978 -1.402299881
C -4.880300045 1.047099829 -0.882199943
O -3.831899881 0.285600007 -0.275599927
N -7.253200054 0.519200027 -1.210399866
C -8.226799965 -0.277700007 -1.703699827
S 0.577754736 0.631027877 0.746504307
C -0.223739833 1.218172789 0.225469530
O -1.442757726 0.925477684 0.428617001
F -0.100785077 -1.378101349 0.263426423
F 0.945085764 -0.191569567 -0.348573297
C -0.353256434 0.674117029 -0.506616175
