20

C -2.983900070 -2.014100075 0.710200012
C -2.731499910 -1.452700019 -0.684300005
C -1.895499945 -0.155000001 -0.732400000
C -2.665699959 1.040099978 -0.184900001
C -2.697599888 1.343199968 1.187100053
C -3.422199965 2.439800024 1.661499977
C -4.126200199 3.241899967 0.767400026
Br -5.110599995 4.723100185 1.408400059
C -4.113299847 2.957400084 -0.595399976
C -3.387799978 1.860599995 -1.068099976
C 5.327899933 -1.492799997 -0.970399976
N 4.219399929 -1.146299958 -0.082999997
C 2.920599937 -1.340199947 -0.770200014
C 1.741600037 -0.908399999 0.122900002
O 1.883399963 0.462099999 0.553799987
C 3.125600100 0.633700013 1.250699997
C 4.322400093 0.255400002 0.364600003
I 0.393831372 0.163959369 -0.197682247
F 1.010413647 -1.348244786 -0.349772245
Cl -0.644267976 0.446783423 -0.537109733
