26

C 2.282673597 2.156189442 0.822994769
C 1.823573709 1.320989370 -0.334705234
C 0.482973695 0.960889399 -0.462805241
C 0.066473678 0.149789453 -1.520505190
C 0.981873691 -0.320110559 -2.481605291
C 0.467673659 -1.220910549 -3.587205410
C 2.338673592 0.045889437 -2.362805367
C 3.407173634 -0.427010566 -3.313405275
C 2.740773678 0.837889373 -1.272505283
C 0.360973686 -1.640910625 3.582694769
S -0.241526321 -0.081510544 3.216294765
C -0.978426278 -0.683010578 1.767994642
N -1.664426327 0.091189444 0.882594764
C -2.605926275 -0.527710557 -0.040905237
C -3.708226442 0.516489446 -0.199005246
C -2.973426342 1.828489304 0.005794764
C -1.992626309 1.489089489 1.125194788
N -0.796526372 -1.974910498 1.587694645
C 0.008273691 -2.520810604 2.584194660
C 0.244458407 -1.677805781 0.008083377
Br 2.213516474 -0.670038998 -0.396686852
N 1.618758559 -2.663798094 -1.102370262
C -0.637596309 -0.646848440 -0.585218549
C 0.764427841 -2.410331726 0.480435312
C 0.271818906 -1.146057367 -1.125563264
Cl 0.912116885 -2.869777203 1.790357828
