26

C 2.282673597 2.156189442 0.822994769
C 1.823573709 1.320989370 -0.334705234
C 0.482973695 0.960889399 -0.462805241
C 0.066473678 0.149789453 -1.520505190
C 0.981873691 -0.320110559 -2.481605291
C 0.467673659 -1.220910549 -3.587205410
C 2.338673592 0.045889437 -2.362805367
C 3.407173634 -0.427010566 -3.313405275
C 2.740773678 0.837889373 -1.272505283
C 0.360973686 -1.640910625 3.582694769
S -0.241526321 -0.081510544 3.216294765
C -0.978426278 -0.683010578 1.767994642
N -1.664426327 0.091189444 0.882594764
C -2.605926275 -0.527710557 -0.040905237
C -3.708226442 0.516489446 -0.199005246
C -2.973426342 1.828489304 0.005794764
C -1.992626309 1.489089489 1.125194788
N -0.796526372 -1.974910498 1.587694645
C 0.008273691 -2.520810604 2.584194660
S 0.433407515 -1.276758194 1.179173470
O 0.544032693 -2.007131577 0.077185072
N 1.794390798 -1.650808215 1.258278131
Cl -0.019494152 0.654983938 -1.032522917
C 0.659191310 -0.115720779 -0.971961200
F -0.074560583 -0.785389185 -0.019373164
Cl -0.218326122 -1.055261374 0.242419332
