27

O 2.660900116 -1.845999956 2.258899927
C 2.702800035 -0.906799912 1.478199959
N 3.769099951 -0.635799944 0.659499884
C 4.968800068 -1.431699991 0.784499884
C 5.974699974 -1.061399937 -0.262400061
C 7.090499878 -0.273299932 0.032599926
C 7.988900185 0.056300044 -0.978300035
C 7.737299919 -0.409299940 -2.258100033
N 6.667699814 -1.165599823 -2.583499908
C 5.813199997 -1.473599911 -1.581500053
N 1.702700019 0.014500082 1.302799940
C -7.985699654 -1.448699951 -2.400399923
C -6.665599823 -1.829900026 -2.603699923
C -5.639599800 -1.032599926 -2.103300095
C -5.965600014 0.128100038 -1.402300119
C -4.880300045 1.047100067 -0.882200062
O -3.831899643 0.285600066 -0.275600046
N -7.253200054 0.519200087 -1.210400105
C -8.226799965 -0.277699947 -1.703700066
I -2.133587837 0.079455316 -0.861139417
Cl -1.651270390 1.069617867 0.532088995
C -3.055252790 1.257884860 0.808936715
I -0.649492860 -1.725960016 0.280766964
C -1.559801221 -2.047274590 0.126337051
I -1.831351519 -0.020051062 1.547902584
S -0.151780069 0.246785581 2.298821688
C -0.443955183 -0.371345460 -0.404322356
