26

C 2.308655500 2.088361263 0.623705566
C 1.849555492 1.253161073 -0.533994436
C 0.508955598 0.893061042 -0.662094474
C 0.092455566 0.081961095 -1.719794512
C 1.007855654 -0.387938917 -2.680894375
C 2.364655495 -0.021938920 -2.562094450
C 3.433155537 -0.494838923 -3.512694359
C 2.766755581 0.770061016 -1.471794367
C 0.386955559 -1.708738923 3.383405685
S -0.215544432 -0.149338901 3.017005682
C -0.952444375 -0.750838935 1.568705559
N -1.638444424 0.023361087 0.683305562
C -2.579944372 -0.595538914 -0.240194440
C -3.682244539 0.448661089 -0.398294449
C -2.947444439 1.760661006 -0.193494439
C -1.966644526 1.421261191 0.925905526
N -0.770544469 -2.042738914 1.388405561
C 0.034255579 -2.588638783 2.384905577
F 1.628832698 -2.880702734 -0.972470760
F -0.754695594 -1.661211133 -2.963627100
O 1.391480207 0.005025964 -2.631469250
S 1.147108555 -4.831231594 -0.184840962
C 1.372614145 -1.468514442 -0.489718378
Cl 1.079103470 -4.038405895 0.548974574
C 0.785814822 -2.678586483 1.633350849
S 0.739377975 -3.555363417 -1.623855114
